#\#CIF_1.1

#  CIF produced by WinGX routine CIF_UPDATE
#  Created on 2024-01-25 at 14:24:58
#  Using CIFtbx version 3.0.4  1 Sep 2006

#  Dictionary name : cif_core.dic
#  Dictionary vers : 2.4.5
#  Request file    : c:\wingx\files\archive.reqdat
#  CIF files read  : jjz_ssndw_rep_0m_c project

#------------------ SECTION 1. GLOBAL INFORMATION ---------------------------#

data_global

#------------------ AUDIT DETAILS -------------------------------------------#

_audit_creation_date            2024-01-25
_audit_creation_method          'WinGX routine CIF_UPDATE'
_audit_conform_dict_name        cif_core.dic
_audit_conform_dict_version     2.4.3
_audit_conform_dict_location    ftp://ftp.iucr.org/pub/cif_core.dic
_audit_update_record            ?

#------------------ AUTHOR DETAILS -------------------------------------------#

# Name and address of author for correspondence

_publ_contact_author_name       'Jankowski, Robert'
_publ_contact_author_address
;
Gronostajowa 2, 30-387 Krakow
;
_publ_contact_author_email       'robert14.jankowski@uj.edu.pl'
_publ_contact_author_fax         ' '
_publ_contact_author_phone       ' '


# Insert blank lines between references

_publ_section_references
;
Blessing, R. H. (1995) Acta Cryst., A51, 33-38.

Blessing, R. H. (1987) Cryst. Rev. 1, 3-58.

Blessing, R. H. (1989) J. Appl. Cryst. 22, 396-397.

Bruker (2012) APEX2 (Version 2012.10-0), SAINT (version 8.27B), SADABS
(version 2012/1), BrukerAXS Inc, Madison, Wisconsin, USA.

ABSCOR: Higashi, T. (1995). ABSCOR. Rigaku Corporation, Tokyo, Japan.

CAD-4 Software: Enraf-Nonius (1989). CAD-4 Software (or CAD-4 EXPRESS).
Enraf-Nonius, Delft, The Netherlands.

Cambridge Structural Database: Allen, F. R. (2002). Acta Cryst. B58, 380-388.

CAMERON: Watkin, D. J., Prout, C. K. & Pearce, L. J. (1996). CAMERON.
Chemical Crystallography Laboratory, Oxford, England.

CrysAlis CCD, CrysAlis RED and associated programs: Oxford Diffraction (2006).
Program name(s). Oxford Diffraction Ltd, Abingdon, England.

CRYSTALS: Betteridge, P. W., Carruthers, J. R., Cooper, R. I., Prout, K. &
Watkin, D. J. (2003). J. Appl. Cryst. 36, 1487.

COLLECT: Nonius (1998). COLLECT. Nonius BV, Delft, The Netherlands.

DENZO/SCALEPACK:  Otwinowski, Z. & Minor, W. (1997). Methods in Enzymology,
Vol. 276, Macromolecular Crystallography, Part A, edited by C. W. Carter Jr
& R. M. Sweet, pp. 307-326. New York: Academic Press.

DIAMOND: Brandenburg, K.(2006). DIAMOND. Crystal Impact GbR, Bonn, Germany.

DIF4 and REDU4: Stoe & Cie (1991). Program name(s). Stoe & Cie, Darmstadt,
Germany.

DIFABS: Walker, N. &  Stuart, D. (1983). Acta Cryst., A39, 158 - 166.

DIRAX: Duisenberg, A. J. M. (1992). J. Appl. Cryst. 25, 92-96.

DIRDIF-2008: Beurskens, P.T., Beurskens, G., de Gelder, R., Garci\'ia-Granda,
S., Gould, R.O. & Smits, J.M.M. (2008) The DIRDIF-2008 program
system, Crystallography Laboratory, Radboud University  Nijmegen,
The Netherlands.

EDMA: Palatinus, L., Prathapa, S. J. & van Smaalen, S. (2012) J. Appl. Cryst.
45, 575-580.

enCIFer: Allen, F. H., Johnson, O., Shields, G. P., Smith, B. R. & Towler,
M. (2004). J. Appl. Cryst. 37, 335-338.

EVALCCD: Duisenberg, A. J. M., Kroon-Batenburg, L. M. J. & Schreurs,
A. M. M. (2003). J. Appl. Cryst. 36, 220-229.

JANA2000: Petricek, V. & Dusek, M. (2000). JANA2000. Institute of Physics,
Czech Academy of Sciences, Prague, Czech Republic.

MERCURY: Macrae, C. F., Bruno, I. J., Chisholm, J. A., Edgington,
P. R., McCabe, P., Pidcock, E., Rodriguez-Monge, L., Taylor, R.,
van de Streek, J. & Wood, P. A. (2008). J. Appl. Cryst. 41, 466-470.

MOGUL: Bruno, I. J., Cole, J. C., Kessler, M., Luo, J., Motherwell,
W. D. S., Purkis, L. H., Smith, B. R., Taylor, R., Cooper, R. I., Harris,
S. E. & Orpen, A. G. (2004). J. Chem. Inf. Comput. Sci. 44, 2133-2144.

ORTEPII: Johnson, C. K. (1976). ORTEPII. Report ORNL-5138. Oak Ridge
National Laboratory, Tennessee, USA.

ORTEPIII:  Burnett, M. N. & Johnson, C. K. (1996). ORTEPIII.
Report ORNL-6895. Oak Ridge National Laboratory, Tennessee, USA.

ORTEP-3: Farrugia, L. J. (2012). J. Appl. Cryst. 45, 849-854.

PARST: Nardelli, M. (1995). J. Appl. Cryst. 28, 659.

PLATON: Spek, A. L. (2009). Acta. Cryst. D65, 148-155.

PROCESS: Rigaku (1996). PROCESS. Rigaku Corporation, Tokyo, Japan.

PROCESS-AUTO: Rigaku (1998). PROCESS-AUTO. Rigaku Corporation, Tokyo, Japan.

PublCIF: Westrip, S. P. (2010). J. Appl. Cryst. 43, 920-925.

SCHAKAL: Keller, E. (1999) University of Freiburg, Germany.

SHELX: Sheldrick, G. M. (2015). Acta Cryst. C71, 3-8.

SHELXD: Schneider, T. R. & Sheldrick, G. M. (2002) Acta Cryst. D58, 1772-1779.

SHELXT: Sheldrick, G. M. (2015). Acta Cryst. A71, 3-8.

SIR92: Altomare, A., Cascarano, G., Giacovazzo, C., Guagliardi, A., Burla,
M. C., Polidori, G. & Camalli, M. (1994). J. Appl. Cryst. 27, 435.

SIR97: Altomare, A., Burla, M. C., Camalli, M., Cascarano, G. L.,
Giacovazzo, C., Guagliardi, A., Moliterni, A. G. G., Polidori, G. &
Spagna, R. (1999). J. Appl. Cryst. 32, 115-119.

SIR2002: Burla, M. C., Camalli, M., Carrozzini, B., Cascarano, G. L.,
Giacovazzo, C., Polidori, G. & Spagna, R. (2003). J. Appl. Cryst. 36, 1103.

SIR2004: Burla, M. C., Caliandro, R., Camalli, M., Carrozzini, B.,
Cascarano, G. L., De Caro, L., Giacovazzo, C., Polidori, G. & Spagna, R.
(2005). J. Appl. Cryst. 38, 381-388.

SIR2008 & IL MILIONE: Burla, M. C., Caliandro, R., Camalli, M., Carrozzini, B.,
Cascarano, G. L., De Caro, L., Giacovazzo, C., Polidori, G., Siliqi, D.,
& Spagna, R. (2007). J. Appl. Cryst. 40, 609-613.

SIR2011: Burla, M. C., Caliandro, R., Camalli, M., Carrozzini, B.,
Cascarano, G. L., Giacovazzo, C., Mallamo, M., Mazzone, A., Polidori, G.
& Spagna, R. (2012). J. Appl. Cryst. 45, 357-361.

SUPERFLIP: Palatinus, L. & Chapuis, G. (2007) J. Appl. Cryst. 40, 786-790.

TEXSAN: Molecular Structure Corporation & Rigaku (2000). TEXSAN. MSC,
The Woodlands, Texas, USA, and Rigaku Corporation, Tokyo, Japan.

WinGX: Farrugia, L. J. (2012). J. Appl. Cryst. 45, 849-854.

X-AREA, X-RED, X-RED32, X-SHAPE:  Stoe & Cie (2002). Program name(s).
Stoe & Cie GmbH, Darmstadt, Germany.

XCAD4: Harms, K. & Wocadlo, S. (1995). XCAD4. University of Marburg, Germany.

XSCANS: Siemens (1994). XSCANS. Siemens Analytical X-ray Instruments Inc.,
Madison, Wisconsin, USA.

;

#------------------  SECTION 2. COMPOUND(S) DETAILS -------------------------#

data_shelx

_audit_creation_date                    2024-01-25T14:24:58-00:00
_audit_creation_method                  'WinGX routine CIF_UPDATE'
_audit_conform_dict_name                cif_core.dic
_audit_conform_dict_version             2.4.5
_audit_conform_dict_location            ftp://ftp.iucr.org/pub/cif_core.dic
_publ_requested_category                FM

#----------------------------------------------------------------------------#
#                   CHEMICAL INFORMATION                                     #
#----------------------------------------------------------------------------#

_chemical_formula_moiety                'C12 H16 N8 Nd O4 W [+ solvent]'
_chemical_formula_sum                   'C12 H16 N8 Nd O4 W [+ solvent]'
_chemical_formula_weight                664.42
_chemical_absolute_configuration        syn

#----------------------------------------------------------------------------#
#                   UNIT CELL INFORMATION                                    #
#----------------------------------------------------------------------------#

_symmetry_cell_setting                  monoclinic
_symmetry_space_group_name_H-M          'P 21'
_symmetry_space_group_name_Hall         'P 2yb'
_symmetry_Int_Tables_number             4
loop_
    _symmetry_equiv_pos_as_xyz
'x, y, z'
'-x, y+1/2, -z'

_cell_length_a                          9.0909(15)
_cell_length_b                          10.8670(17)
_cell_length_c                          19.827(3)
_cell_angle_alpha                       90
_cell_angle_beta                        103.132(5)
_cell_angle_gamma                       90
_cell_volume                            1907.5(5)
_cell_formula_units_Z                   2
_cell_measurement_temperature           100(2)
_cell_measurement_reflns_used           21926
_cell_measurement_theta_min             2.11
_cell_measurement_theta_max             25.016
_cell_measurement_wavelength            0.71073

#----------------------------------------------------------------------------#
#                   CRYSTAL INFORMATION                                      #
#----------------------------------------------------------------------------#

_exptl_crystal_description              plate		
_exptl_crystal_colour                   yellow
_exptl_crystal_size_max                 0.28
_exptl_crystal_size_mid                 0.26
_exptl_crystal_size_min                 0.06
_exptl_crystal_density_diffrn           1.157
_exptl_crystal_density_method           'not measured'
_exptl_crystal_F_000                    620

#----------------------------------------------------------------------------#
#                   ABSORPTION CORRECTION                                    #
#----------------------------------------------------------------------------#

_exptl_absorpt_coefficient_mu           4.376
_exptl_absorpt_correction_type          'multi-scan'
_shelx_estimated_absorpt_T_min          0.374
_shelx_estimated_absorpt_T_max          0.779
_exptl_absorpt_correction_T_min         0.5160
_exptl_absorpt_correction_T_max         0.7452
_exptl_absorpt_process_details          'SADABS (Krause, 2015)'

#----------------------------------------------------------------------------#
#                   DATA COLLECTION                                          #
#----------------------------------------------------------------------------#

_diffrn_ambient_temperature             100(2)
_diffrn_radiation_wavelength            0.71073
_diffrn_radiation_type                  MoK\a
_diffrn_radiation_probe                 x-ray
_diffrn_radiation_monochromator         'Helios optics'
_diffrn_measurement_device_type   	    'D8Venture Photon III CPAD' 
_diffrn_measurement_method       	    \w 
_diffrn_standards_number                0
_diffrn_standards_interval_time         0
_diffrn_standards_interval_count        0
_diffrn_standards_decay_%               0
_diffrn_reflns_av_R_equivalents         0.0477
_diffrn_reflns_av_unetI/netI            0.0599
_diffrn_reflns_number                   21926
_diffrn_reflns_limit_h_min              -10
_diffrn_reflns_limit_h_max              9
_diffrn_reflns_limit_k_min              -12
_diffrn_reflns_limit_k_max              12
_diffrn_reflns_limit_l_min              -23
_diffrn_reflns_limit_l_max              23
_diffrn_reflns_theta_min                2.11
_diffrn_reflns_theta_max                25.016
_diffrn_reflns_theta_full               25.016
_diffrn_measured_fraction_theta_full
                                        0.999
_diffrn_measured_fraction_theta_max
                                        0.999
_diffrn_reflns_Laue_measured_fraction_full
                                        0.999
_diffrn_reflns_Laue_measured_fraction_max
                                        0.999
_diffrn_reflns_point_group_measured_fraction_full
                                        0.995
_diffrn_reflns_point_group_measured_fraction_max
                                        0.995
_reflns_Friedel_fraction_full           0.99
_reflns_Friedel_fraction_max            0.99
_reflns_Friedel_coverage                0.882
_reflns_number_total                    6675
_reflns_number_gt                       5204
_reflns_threshold_expression            'I > 2\s(I)'

#----------------------------------------------------------------------------#
#                   COMPUTER PROGRAMS USED                                   #
#----------------------------------------------------------------------------#

_computing_structure_solution           'SHELXT 2018/2 (Sheldrick, 2018)'
_computing_structure_refinement         'SHELXL-2018/3 (Sheldrick, 2018)'
_computing_molecular_graphics           'Ortep for Windows (Farrugia, 2012)'
_computing_publication_material         'WinGX publication routines (Farrugia, 2012)'

#----------------------------------------------------------------------------#
#                   STRUCTURE SOLUTION                                       #
#----------------------------------------------------------------------------#

_atom_sites_solution_hydrogens          mixed

#----------------------------------------------------------------------------#
#                   REFINEMENT INFORMATION                                   #
#----------------------------------------------------------------------------#

_shelx_SHELXL_version_number            2018/3
_refine_ls_structure_factor_coef        Fsqd
_refine_ls_matrix_type                  full
_refine_ls_weighting_scheme             calc
_refine_ls_weighting_details            'w=1/[\s^2^(Fo^2^)+(0.0472P)^2^+4.3942P] where P=(Fo^2^+2Fc^2^)/3'
_refine_ls_hydrogen_treatment           mixed
_refine_ls_extinction_method            none
_refine_ls_number_reflns                6675
_refine_ls_number_parameters            247
_refine_ls_number_restraints            73
_refine_ls_number_constraints           0
_refine_ls_R_factor_all                 0.0548
_refine_ls_R_factor_gt                  0.0402
_refine_ls_wR_factor_ref                0.1105
_refine_ls_wR_factor_gt                 0.1052
_refine_ls_goodness_of_fit_ref          1.093
_refine_ls_restrained_S_all             1.092
_refine_ls_shift/su_max                 0.001
_refine_ls_shift/su_mean                0
_refine_ls_abs_structure_details
;
 Flack x determined using 1995 quotients [(I+)-(I-)]/[(I+)+(I-)]
 (Parsons, Flack and Wagner, Acta Cryst. B69 (2013) 249-259).
;
_refine_ls_abs_structure_Flack          0.478(14)
_refine_diff_density_max                2.023
_refine_diff_density_min                -0.596
_refine_diff_density_rms                0.128

#----------------------------------------------------------------------------#
#                   CONSTRAINTS AND RESTRAINTS                               #
#----------------------------------------------------------------------------#


#----------------------------------------------------------------------------#
#                   ATOMIC TYPES, COORDINATES AND THERMAL PARAMETERS         #
#----------------------------------------------------------------------------#

loop_
    _atom_type_symbol
    _atom_type_description
    _atom_type_scat_dispersion_real
    _atom_type_scat_dispersion_imag
    _atom_type_scat_source
C C 0.0033 0.0016 'International Tables Vol C Tables 4.2.6.8 and 6.1.1.4'
H H 0 0 'International Tables Vol C Tables 4.2.6.8 and 6.1.1.4'
N N 0.0061 0.0033 'International Tables Vol C Tables 4.2.6.8 and 6.1.1.4'
Nd Nd -0.1943 3.0179 'International Tables Vol C Tables 4.2.6.8 and 6.1.1.4'
O O 0.0106 0.006 'International Tables Vol C Tables 4.2.6.8 and 6.1.1.4'
W W -0.849 6.8722 'International Tables Vol C Tables 4.2.6.8 and 6.1.1.4'

loop_
    _atom_site_label
    _atom_site_type_symbol
    _atom_site_fract_x
    _atom_site_fract_y
    _atom_site_fract_z
    _atom_site_U_iso_or_equiv
    _atom_site_adp_type
    _atom_site_occupancy
    _atom_site_site_symmetry_order
    _atom_site_calc_flag
    _atom_site_refinement_flags_posn
    _atom_site_refinement_flags_adp
    _atom_site_refinement_flags_occupancy
    _atom_site_disorder_assembly
    _atom_site_disorder_group
W1 W 0.18264(6) 0.78323(2) 0.36494(2) 0.03394(17) Uani 1 1 d . . . . .
Nd1 Nd 0.23044(7) 1.28260(13) 0.46135(3) 0.03105(18) Uani 1 1 d D . . . .
O2 O 0.2926(17) 1.4190(13) 0.5649(7) 0.048(4) Uani 1 1 d D . . . .
N4 N 0.1975(19) 0.4975(14) 0.4176(8) 0.040(4) Uani 1 1 d . U . . .
N3 N 0.4827(12) 0.778(2) 0.4941(5) 0.039(3) Uani 1 1 d . . . . .
O4 O 0.3392(12) 1.295(2) 0.3600(5) 0.062(4) Uani 1 1 d D . . . .
O3 O 0.0181(13) 1.292(3) 0.3594(5) 0.072(4) Uani 1 1 d D . . . .
N2 N 0.0095(14) 0.778(2) 0.4953(5) 0.048(3) Uani 1 1 d . . . . .
C3 C 0.3778(14) 0.792(3) 0.4517(6) 0.031(3) Uani 1 1 d . . . . .
C4 C 0.1898(18) 0.5988(13) 0.4011(8) 0.021(4) Uani 1 1 d . U . . .
C2 C 0.0731(13) 0.786(3) 0.4535(6) 0.038(3) Uani 1 1 d . . . . .
C1 C 0.219(3) 0.967(2) 0.3960(12) 0.053(6) Uani 1 1 d . U . . .
O1 O 0.2697(15) 1.1493(12) 0.5646(7) 0.043(4) Uani 1 1 d D . . . .
N6 N 0.182(4) 0.615(3) 0.2256(15) 0.162(10) Uani 1 1 d . U . . .
N5 N 0.4911(19) 0.6885(15) 0.3108(6) 0.062(4) Uani 1 1 d . . . . .
C5 C 0.379(3) 0.7218(14) 0.3302(7) 0.058(6) Uani 1 1 d . . . . .
C10 C 0.202(2) 1.5226(16) 0.5847(10) 0.063(5) Uani 1 1 d D . . . .
H10A H 0.256867 1.558667 0.628541 0.095 Uiso 1 1 calc R U . . .
H10B H 0.185509 1.585598 0.54843 0.095 Uiso 1 1 calc R U . . .
H10C H 0.104268 1.491194 0.590185 0.095 Uiso 1 1 calc R U . . .
C8 C 0.077(3) 0.892(2) 0.2790(13) 0.092(7) Uani 1 1 d . U . . .
C9 C 0.379(2) 1.0445(16) 0.5851(10) 0.072(6) Uani 1 1 d D . . . .
H9A H 0.366983 1.009726 0.629203 0.109 Uiso 1 1 calc R U . . .
H9B H 0.35847 0.980717 0.549273 0.109 Uiso 1 1 calc R U . . .
H9C H 0.482473 1.074723 0.590376 0.109 Uiso 1 1 calc R U . . .
C7 C -0.049(3) 0.8415(16) 0.3293(8) 0.069(7) Uani 1 1 d . . . . .
C12 C 0.458(4) 1.217(3) 0.3362(16) 0.150(12) Uani 1 1 d D U . . .
H12A H 0.47399 1.248859 0.29238 0.225 Uiso 1 1 calc R U . . .
H12B H 0.552736 1.219252 0.371403 0.225 Uiso 1 1 calc R U . . .
H12C H 0.422057 1.131329 0.329721 0.225 Uiso 1 1 calc R U . . .
C11 C -0.116(3) 1.206(2) 0.3459(14) 0.113(9) Uani 1 1 d D U . . .
H11A H -0.18531 1.227704 0.302156 0.17 Uiso 1 1 calc R U . . .
H11B H -0.080682 1.120883 0.34313 0.17 Uiso 1 1 calc R U . . .
H11C H -0.168472 1.212023 0.383815 0.17 Uiso 1 1 calc R U . . .
N1 N 0.229(2) 1.0719(19) 0.4200(11) 0.065(6) Uani 1 1 d . U . . .
N7 N -0.182(2) 0.8731(16) 0.3131(7) 0.065(4) Uani 1 1 d . . . . .
N8 N 0.033(3) 0.947(2) 0.2266(12) 0.121(8) Uani 1 1 d . U . . .
C6 C 0.177(3) 0.674(2) 0.2770(12) 0.081(6) Uani 1 1 d . U . . .
H2 H 0.321(15) 1.379(7) 0.6096(18) 0.122 Uiso 1 1 d D U . . .
H4 H 0.363(17) 1.375(4) 0.344(7) 0.122 Uiso 1 1 d D U . . .
H3 H -0.028(10) 1.368(5) 0.340(7) 0.122 Uiso 1 1 d D U . . .
H1 H 0.194(11) 1.134(13) 0.590(7) 0.122 Uiso 1 1 d D U . . .

loop_
    _atom_site_aniso_label
    _atom_site_aniso_U_11
    _atom_site_aniso_U_22
    _atom_site_aniso_U_33
    _atom_site_aniso_U_23
    _atom_site_aniso_U_13
    _atom_site_aniso_U_12
W1 0.0537(4) 0.0241(2) 0.0222(2) -0.0002(5) 0.00479(19) -0.0005(6)
Nd1 0.0406(4) 0.0219(3) 0.0301(3) -0.0008(8) 0.0070(3) 0.0001(8)
O2 0.068(11) 0.037(8) 0.040(8) -0.013(7) 0.014(7) -0.015(7)
N4 0.042(6) 0.034(6) 0.040(6) 0.002(5) 0.004(5) -0.001(5)
N3 0.046(7) 0.037(6) 0.035(5) -0.002(10) 0.010(5) 0.010(11)
O4 0.054(6) 0.096(11) 0.040(5) 0.019(11) 0.016(4) -0.011(12)
O3 0.061(7) 0.105(10) 0.043(5) 0.020(12) -0.002(5) 0.019(14)
N2 0.065(8) 0.052(7) 0.027(5) 0.002(10) 0.013(5) 0.043(11)
C3 0.029(7) 0.030(8) 0.035(6) 0.002(11) 0.008(5) 0.000(11)
C4 0.023(6) 0.018(5) 0.022(5) 0.005(4) 0.006(4) 0.002(5)
C2 0.033(7) 0.040(7) 0.037(6) -0.015(14) 0.000(5) 0.000(15)
C1 0.053(8) 0.056(8) 0.055(8) 0.004(6) 0.019(6) 0.002(6)
O1 0.048(9) 0.033(7) 0.043(8) 0.010(6) 0.002(6) -0.006(7)
N6 0.183(15) 0.156(15) 0.149(14) -0.012(12) 0.045(12) -0.003(12)
N5 0.066(12) 0.095(12) 0.028(7) -0.005(7) 0.016(7) -0.032(9)
C5 0.104(17) 0.037(8) 0.023(8) 0.008(6) -0.010(9) -0.027(9)
C10 0.075(15) 0.050(10) 0.068(12) -0.008(9) 0.022(10) 0.001(10)
C8 0.092(9) 0.090(9) 0.093(9) 0.003(6) 0.019(6) -0.002(6)
C9 0.092(16) 0.036(9) 0.077(14) 0.008(9) -0.004(11) 0.008(10)
C7 0.14(2) 0.045(9) 0.024(8) -0.010(7) 0.019(11) -0.047(12)
C12 0.149(17) 0.157(17) 0.139(16) -0.013(12) 0.022(12) 0.006(12)
C11 0.104(14) 0.124(13) 0.110(13) -0.009(11) 0.022(11) -0.008(11)
N1 0.068(8) 0.062(8) 0.063(8) -0.002(6) 0.013(6) 0.000(6)
N7 0.077(13) 0.083(11) 0.033(8) 0.010(7) 0.008(8) -0.014(10)
N8 0.130(13) 0.117(12) 0.109(12) 0.028(10) 0.015(10) -0.002(10)
C6 0.092(9) 0.078(8) 0.078(8) -0.002(6) 0.027(6) -0.003(6)


#----------------------------------------------------------------------------#
#                   MOLECULAR GEOMETRY                                       #
#----------------------------------------------------------------------------#

_geom_special_details
;
 All esds (except the esd in the dihedral angle between two l.s. planes)
 are estimated using the full covariance matrix.  The cell esds are taken
 into account individually in the estimation of esds in distances, angles
 and torsion angles; correlations between esds in cell parameters are only
 used when they are defined by crystal symmetry.  An approximate (isotropic)
 treatment of cell esds is used for estimating esds involving l.s. planes.
;
loop_
    _geom_bond_atom_site_label_1
    _geom_bond_atom_site_label_2
    _geom_bond_distance
    _geom_bond_site_symmetry_2
    _geom_bond_publ_flag
W1 C1 2.10(2) . ?
W1 C6 2.10(2) . ?
W1 C8 2.12(3) . ?
W1 C4 2.124(14) . ?
W1 C7 2.16(3) . ?
W1 C5 2.16(2) . ?
W1 C3 2.175(13) . ?
W1 C2 2.207(13) . ?
Nd1 N1 2.43(2) . ?
Nd1 O4 2.436(9) . ?
Nd1 O3 2.460(10) . ?
Nd1 O1 2.466(13) . ?
Nd1 N4 2.486(15) 1_565 ?
Nd1 O2 2.491(13) . ?
Nd1 N2 2.520(12) 2_556 ?
Nd1 N3 2.557(11) 2_656 ?
O2 C10 1.50(2) . ?
O2 H2 0.97(3) . ?
N4 C4 1.146(18) . ?
N3 C3 1.129(15) . ?
O4 C12 1.53(3) . ?
O4 H4 0.97(3) . ?
O3 C11 1.51(3) . ?
O3 H3 0.97(3) . ?
N2 C2 1.117(16) . ?
C1 N1 1.23(2) . ?
O1 C9 1.50(2) . ?
O1 H1 0.96(3) . ?
N6 C6 1.21(3) . ?
N5 C5 1.22(2) . ?
C5 C6 1.97(3) . ?
C10 H10A 0.98 . ?
C10 H10B 0.98 . ?
C10 H10C 0.98 . ?
C8 N8 1.19(3) . ?
C8 C7 1.77(3) . ?
C9 H9A 0.98 . ?
C9 H9B 0.98 . ?
C9 H9C 0.98 . ?
C7 N7 1.23(3) . ?
C12 H12A 0.98 . ?
C12 H12B 0.98 . ?
C12 H12C 0.98 . ?
C11 H11A 0.98 . ?
C11 H11B 0.98 . ?
C11 H11C 0.98 . ?

loop_
    _geom_angle_atom_site_label_1
    _geom_angle_atom_site_label_2
    _geom_angle_atom_site_label_3
    _geom_angle
    _geom_angle_site_symmetry_1
    _geom_angle_site_symmetry_3
    _geom_angle_publ_flag
C1 W1 C6 139.2(9) . . ?
C1 W1 C8 73.6(9) . . ?
C6 W1 C8 74.0(8) . . ?
C1 W1 C4 144.1(5) . . ?
C6 W1 C4 74.9(7) . . ?
C8 W1 C4 140.5(8) . . ?
C1 W1 C7 83.9(8) . . ?
C6 W1 C7 93.1(8) . . ?
C8 W1 C7 48.9(8) . . ?
C4 W1 C7 109.9(6) . . ?
C1 W1 C5 107.6(7) . . ?
C6 W1 C5 55.2(8) . . ?
C8 W1 C5 99.9(8) . . ?
C4 W1 C5 81.5(6) . . ?
C7 W1 C5 143.4(6) . . ?
C1 W1 C3 71.4(10) . . ?
C6 W1 C3 123.0(9) . . ?
C8 W1 C3 138.8(10) . . ?
C4 W1 C3 79.5(9) . . ?
C7 W1 C3 143.7(6) . . ?
C5 W1 C3 71.3(6) . . ?
C1 W1 C2 79.8(10) . . ?
C6 W1 C2 137.4(10) . . ?
C8 W1 C2 115.4(9) . . ?
C4 W1 C2 74.3(9) . . ?
C7 W1 C2 70.9(6) . . ?
C5 W1 C2 144.4(6) . . ?
C3 W1 C2 78.7(4) . . ?
N1 Nd1 O4 75.3(8) . . ?
N1 Nd1 O3 79.6(8) . . ?
O4 Nd1 O3 73.1(4) . . ?
N1 Nd1 O1 73.4(6) . . ?
O4 Nd1 O1 135.0(6) . . ?
O3 Nd1 O1 130.2(6) . . ?
N1 Nd1 N4 140.9(4) . 1_565 ?
O4 Nd1 N4 72.5(7) . 1_565 ?
O3 Nd1 N4 70.3(8) . 1_565 ?
O1 Nd1 N4 145.5(5) . 1_565 ?
N1 Nd1 O2 145.2(6) . . ?
O4 Nd1 O2 126.0(6) . . ?
O3 Nd1 O2 129.9(7) . . ?
O1 Nd1 O2 72.7(3) . . ?
N4 Nd1 O2 73.4(5) 1_565 . ?
N1 Nd1 N2 99.1(7) . 2_556 ?
O4 Nd1 N2 145.8(4) . 2_556 ?
O3 Nd1 N2 72.7(4) . 2_556 ?
O1 Nd1 N2 71.3(5) . 2_556 ?
N4 Nd1 N2 95.2(6) 1_565 2_556 ?
O2 Nd1 N2 77.4(5) . 2_556 ?
N1 Nd1 N3 91.4(7) . 2_656 ?
O4 Nd1 N3 73.3(3) . 2_656 ?
O3 Nd1 N3 146.4(3) . 2_656 ?
O1 Nd1 N3 75.9(5) . 2_656 ?
N4 Nd1 N3 100.0(6) 1_565 2_656 ?
O2 Nd1 N3 72.8(5) . 2_656 ?
N2 Nd1 N3 140.9(3) 2_556 2_656 ?
C10 O2 Nd1 128.9(11) . . ?
C10 O2 H2 98(4) . . ?
Nd1 O2 H2 117(4) . . ?
C4 N4 Nd1 175.5(14) . 1_545 ?
C3 N3 Nd1 151.3(12) . 2_646 ?
C12 O4 Nd1 132.0(16) . . ?
C12 O4 H4 100(4) . . ?
Nd1 O4 H4 120(4) . . ?
C11 O3 Nd1 124.6(14) . . ?
C11 O3 H3 102(5) . . ?
Nd1 O3 H3 123(5) . . ?
C2 N2 Nd1 152.4(10) . 2_546 ?
N3 C3 W1 169(3) . . ?
N4 C4 W1 176.1(14) . . ?
N2 C2 W1 173(2) . . ?
N1 C1 W1 171.9(19) . . ?
C9 O1 Nd1 129.2(11) . . ?
C9 O1 H1 104(4) . . ?
Nd1 O1 H1 123(4) . . ?
N5 C5 C6 119.7(14) . . ?
N5 C5 W1 179.3(14) . . ?
C6 C5 W1 60.8(10) . . ?
O2 C10 H10A 109.5 . . ?
O2 C10 H10B 109.5 . . ?
H10A C10 H10B 109.5 . . ?
O2 C10 H10C 109.5 . . ?
H10A C10 H10C 109.5 . . ?
H10B C10 H10C 109.5 . . ?
N8 C8 C7 121(3) . . ?
N8 C8 W1 171(2) . . ?
C7 C8 W1 66.9(12) . . ?
O1 C9 H9A 109.5 . . ?
O1 C9 H9B 109.5 . . ?
H9A C9 H9B 109.5 . . ?
O1 C9 H9C 109.5 . . ?
H9A C9 H9C 109.5 . . ?
H9B C9 H9C 109.5 . . ?
N7 C7 C8 119.5(17) . . ?
N7 C7 W1 176.0(14) . . ?
C8 C7 W1 64.2(13) . . ?
O4 C12 H12A 109.5 . . ?
O4 C12 H12B 109.5 . . ?
H12A C12 H12B 109.5 . . ?
O4 C12 H12C 109.5 . . ?
H12A C12 H12C 109.5 . . ?
H12B C12 H12C 109.5 . . ?
O3 C11 H11A 109.5 . . ?
O3 C11 H11B 109.5 . . ?
H11A C11 H11B 109.5 . . ?
O3 C11 H11C 109.5 . . ?
H11A C11 H11C 109.5 . . ?
H11B C11 H11C 109.5 . . ?
C1 N1 Nd1 175.6(18) . . ?
N6 C6 C5 112(2) . . ?
N6 C6 W1 175(2) . . ?
C5 C6 W1 64.0(10) . . ?

loop_
    _geom_torsion_atom_site_label_1
    _geom_torsion_atom_site_label_2
    _geom_torsion_atom_site_label_3
    _geom_torsion_atom_site_label_4
    _geom_torsion
    _geom_torsion_site_symmetry_1
    _geom_torsion_site_symmetry_2
    _geom_torsion_site_symmetry_3
    _geom_torsion_site_symmetry_4
    _geom_torsion_publ_flag
Nd1 N3 C3 W1 89(10) 2_646 . . . ?
N8 C8 C7 N7 -6(3) . . . . ?
W1 C8 C7 N7 178.5(17) . . . . ?
N8 C8 C7 W1 175(3) . . . . ?

_shelx_res_file
;
TITL JJZ_SSNdW_rep_0m_c.res in P2(1)
    shelx.res
    created by SHELXL-2018/3 at 14:24:49 on 25-Jan-2024
CELL  0.71073   9.0909  10.8670  19.8266   90.000  103.132   90.000
ZERR     2.00   0.0015   0.0017   0.0032    0.000    0.005    0.000
LATT  -1
SYMM  - X, 1/2 + Y, - Z
SFAC  C    H    N    ND   O    W
UNIT  24 32 16 2 8 2
MERG   2
ABIN
DFIX 0.95 O1 H1
DFIX 0.95 O2 H2
DFIX 0.95 O3 H3
DFIX 0.95 O4 H4
DANG 2 C9 H1
DANG 2 C10 H2
DANG 2 C11 H3
DANG 2 C12 H4
DANG 3.1 Nd1 H1
DANG 3.1 Nd1 H2
DANG 3.1 Nd1 H3
DANG 3.1 Nd1 H4
ISOR 0.005 0.01 N6 C4 N4 C12 N8 N1 C6 C1 C8 C11
MORE -1
FMAP   2
PLAN   36
SIZE     0.060   0.260   0.280
ACTA
BOND
BOND   $H
CONF
LIST   4
L.S.  99
TEMP  -173.15
WGHT    0.047200    4.394200
FVAR       0.31516
W1    6    0.182640    0.783230    0.364943    11.00000    0.05372    0.02412 =
         0.02215   -0.00019    0.00479   -0.00052
ND1   4    0.230439    1.282596    0.461350    11.00000    0.04062    0.02189 =
         0.03014   -0.00080    0.00700    0.00014
O2    5    0.292588    1.418982    0.564897    11.00000    0.06770    0.03670 =
         0.03979   -0.01276    0.01449   -0.01498
N4    3    0.197480    0.497545    0.417642    11.00000    0.04239    0.03419 =
         0.03952    0.00158    0.00390   -0.00052
N3    3    0.482727    0.777654    0.494081    11.00000    0.04550    0.03727 =
         0.03502   -0.00225    0.00965    0.00965
O4    5    0.339180    1.295040    0.360022    11.00000    0.05378    0.09589 =
         0.04015    0.01890    0.01642   -0.01070
O3    5    0.018128    1.292205    0.359372    11.00000    0.06128    0.10547 =
         0.04267    0.01982   -0.00227    0.01867
N2    3    0.009533    0.778274    0.495337    11.00000    0.06499    0.05248 =
         0.02700    0.00230    0.01313    0.04328
C3    1    0.377808    0.791942    0.451725    11.00000    0.02944    0.03003 =
         0.03460    0.00167    0.00763   -0.00014
C4    1    0.189841    0.598828    0.401112    11.00000    0.02318    0.01778 =
         0.02238    0.00534    0.00562    0.00243
C2    1    0.073112    0.785944    0.453490    11.00000    0.03292    0.03961 =
         0.03701   -0.01493    0.00048    0.00011
C1    1    0.218891    0.967207    0.396035    11.00000    0.05268    0.05559 =
         0.05459    0.00400    0.01907    0.00220
O1    5    0.269740    1.149263    0.564565    11.00000    0.04826    0.03311 =
         0.04270    0.00999    0.00199   -0.00638
N6    3    0.182059    0.614927    0.225565    11.00000    0.18323    0.15618 =
         0.14868   -0.01152    0.04463   -0.00260
N5    3    0.491144    0.688512    0.310810    11.00000    0.06644    0.09464 =
         0.02754   -0.00474    0.01617   -0.03159
C5    1    0.379414    0.721826    0.330228    11.00000    0.10431    0.03657 =
         0.02254    0.00819   -0.00998   -0.02659
C10   1    0.201959    1.522582    0.584731    11.00000    0.07477    0.04991 =
         0.06830   -0.00848    0.02192    0.00131
AFIX  33
H10A  2    0.256867    1.558667    0.628541    11.00000   -1.50000
H10B  2    0.185509    1.585598    0.548430    11.00000   -1.50000
H10C  2    0.104268    1.491194    0.590185    11.00000   -1.50000
AFIX   0
C8    1    0.077106    0.891761    0.278969    11.00000    0.09202    0.08987 =
         0.09300    0.00331    0.01901   -0.00167
C9    1    0.378939    1.044469    0.585149    11.00000    0.09209    0.03633 =
         0.07749    0.00828   -0.00404    0.00823
AFIX  33
H9A   2    0.366983    1.009726    0.629203    11.00000   -1.50000
H9B   2    0.358470    0.980717    0.549273    11.00000   -1.50000
H9C   2    0.482473    1.074723    0.590376    11.00000   -1.50000
AFIX   0
C7    1   -0.049244    0.841523    0.329289    11.00000    0.13783    0.04457 =
         0.02412   -0.00986    0.01854   -0.04741
C12   1    0.457630    1.216572    0.336246    11.00000    0.14884    0.15680 =
         0.13878   -0.01294    0.02189    0.00555
AFIX  33
H12A  2    0.473990    1.248859    0.292380    11.00000   -1.50000
H12B  2    0.552736    1.219252    0.371403    11.00000   -1.50000
H12C  2    0.422057    1.131329    0.329721    11.00000   -1.50000
AFIX   0
C11   1   -0.115917    1.205554    0.345932    11.00000    0.10439    0.12422 =
         0.10998   -0.00882    0.02177   -0.00843
AFIX  33
H11A  2   -0.185310    1.227704    0.302156    11.00000   -1.50000
H11B  2   -0.080682    1.120883    0.343130    11.00000   -1.50000
H11C  2   -0.168472    1.212023    0.383815    11.00000   -1.50000
AFIX   0
N1    3    0.228915    1.071916    0.420017    11.00000    0.06788    0.06224 =
         0.06303   -0.00190    0.01350   -0.00028
N7    3   -0.182357    0.873104    0.313075    11.00000    0.07724    0.08268 =
         0.03261    0.01014    0.00768   -0.01359
N8    3    0.032936    0.946955    0.226637    11.00000    0.12965    0.11697 =
         0.10928    0.02825    0.01454   -0.00220
C6    1    0.176643    0.673859    0.277003    11.00000    0.09244    0.07754 =
         0.07801   -0.00165    0.02703   -0.00301
H2    2    0.321472    1.379051    0.609617    11.00000   -1.50000
H4    2    0.363354    1.374852    0.343574    11.00000   -1.50000
H3    2   -0.027951    1.368401    0.340164    11.00000   -1.50000
H1    2    0.193501    1.133656    0.589787    11.00000   -1.50000
HKLF    4




REM  JJZ_SSNdW_rep_0m_c.res in P2(1)
REM wR2 = 0.1105, GooF = S = 1.093, Restrained GooF = 1.092 for all data
REM R1 = 0.0402 for 5204 Fo > 4sig(Fo) and 0.0548 for all 6675 data
REM 247 parameters refined using 73 restraints

END

WGHT      0.0472      4.4037

REM Highest difference peak  2.023,  deepest hole -0.596,  1-sigma level  0.128
Q1    1   0.2915  0.7826  0.3614  11.00000  0.05    2.02
Q2    1   0.0671  0.7845  0.3570  11.00000  0.05    1.63
Q3    1   0.3508  1.2833  0.4684  11.00000  0.05    1.49
Q4    1   0.1857  0.8600  0.3696  11.00000  0.05    1.48
Q5    1   0.1154  1.2837  0.4665  11.00000  0.05    1.46
Q6    1   0.2706  0.7857  0.4099  11.00000  0.05    0.96
Q7    1   0.1926  1.2825  0.4168  11.00000  0.05    0.94
Q8    1   0.2312  1.2047  0.4627  11.00000  0.05    0.81
Q9    1   0.1874  0.7054  0.3710  11.00000  0.05    0.80
Q10   1   0.1900  1.2802  0.3764  11.00000  0.05    0.67
Q11   1  -0.1101  1.2862  0.3316  11.00000  0.05    0.63
Q12   1   0.4441  1.2827  0.3290  11.00000  0.05    0.62
Q13   1   0.1276  0.8320  0.4124  11.00000  0.05    0.56
Q14   1   0.1866  0.9374  0.2254  11.00000  0.05    0.54
Q15   1   0.2337  1.3589  0.4633  11.00000  0.05    0.53
Q16   1   0.4403  1.1981  0.3463  11.00000  0.05    0.52
Q17   1  -0.2736  1.2834  0.4425  11.00000  0.05    0.50
Q18   1   0.2344  0.7840  0.4603  11.00000  0.05    0.49
Q19   1   0.0893  1.2690  0.3160  11.00000  0.05    0.48
Q20   1   0.1037  0.8904  0.2669  11.00000  0.05    0.48
Q21   1   0.4632  0.7820  0.4554  11.00000  0.05    0.47
Q22   1   0.3130  0.5063  0.4229  11.00000  0.05    0.47
Q23   1   0.1400  0.7833  0.5109  11.00000  0.05    0.47
Q24   1   0.2138  1.1648  0.4092  11.00000  0.05    0.46
Q25   1   0.3199  0.9017  0.6441  11.00000  0.05    0.46
Q26   1   0.3150  1.6635  0.6436  11.00000  0.05    0.46
Q27   1  -0.1659  1.2766  0.4325  11.00000  0.05    0.46
Q28   1   0.1668  0.5016  0.4232  11.00000  0.05    0.45
Q29   1   0.1577  1.2847  0.3185  11.00000  0.05    0.45
Q30   1   0.1132  0.7464  0.4033  11.00000  0.05    0.44
Q31   1   0.4384  1.3681  0.3455  11.00000  0.05    0.44
Q32   1   0.3223  1.0623  0.4210  11.00000  0.05    0.43
Q33   1   0.5416  0.7793  0.5001  11.00000  0.05    0.43
Q34   1   0.1102  0.8629  0.3190  11.00000  0.05    0.43
Q35   1   0.1629  1.0642  0.4246  11.00000  0.05    0.42
Q36   1   0.1969  1.0389  0.3766  11.00000  0.05    0.41
;
_shelx_res_checksum     8846

_shelx_hkl_file
;
  -1   0   0  298.27   17.40
  -1   0   0  313.57   15.10
   1   0   0  338.57   17.60
   1   0   0  314.87   15.10
  -2   0   0 6590.84  320.67
   2   0   0 7463.85  321.07
   2   0   0 6876.81  324.87
  -2   0   0 6884.91  325.47
   3   0   0 1860.51   93.39
  -3   0   0 1891.91   87.29
  -3   0   0 1855.81   94.69
   3   0   0 1811.02   86.69
   4   0   0  634.74   31.40
   4   0   0  664.13   41.20
  -4   0   0  614.94   42.40
   5   0   0 1413.96   83.99
   5   0   0 1667.83   76.39
  -5   0   0 1645.64   90.59
   5   0   0 1593.94   76.49
   5   0   0 1620.44   87.39
   6   0   0   88.29    9.00
   6   0   0   78.29    7.20
  -6   0   0   85.09   23.30
  -7   0   0  133.89   31.30
  -8   0   0   94.79   31.70
  -9   0   0   37.70   34.00
 -10   0   0   13.60   36.30
   0  -1   0   -1.40    1.00
   0  -1   0    1.10    0.70
   0  -1   0    0.50    0.60
   0   1   0    0.90    1.30
   1  -1   0   29.00    4.00
  -1  -1   0   35.90    5.70
   1  -1   0   33.20    6.30
   1  -1   0   33.70    3.30
  -1  -1   0   26.80    2.70
  -1   1   0   46.90    4.30
  -2  -1   0  922.21   50.29
  -2  -1   0  937.71   46.40
   2  -1   0  935.81   47.20
   2  -1   0  958.60   48.10
   2   1   0  973.30   50.19
  -2   1   0  919.31   46.90
  -2   1   0 1010.10   51.79
   2   1   0 1008.90   46.20
  -2   1   0 1021.80   47.40
  -3  -1   0  926.01   44.50
   3  -1   0  936.51   46.00
  -3  -1   0  915.01   50.99
   3  -1   0  961.30   50.49
   3   1   0  855.81   49.60
  -3   1   0  887.01   51.69
   3   1   0  853.11   43.70
  -4  -1   0  462.75   33.60
   4  -1   0  448.56   26.40
   4  -1   0  442.26   21.70
   4  -1   0  467.65   32.10
  -4  -1   0  433.26   24.00
  -4   1   0  480.05   34.90
   4   1   0  414.76   31.20
   4   1   0  434.36   23.10
   5  -1   0  976.50   45.40
   5  -1   0  971.40   51.89
   5  -1   0  895.21   57.09
  -5  -1   0 1102.89   66.89
   5  -1   0  927.21   45.70
  -5   1   0  939.41   61.19
   5   1   0  934.81   46.80
   5   1   0  898.11   57.39
   6  -1   0    3.60    7.20
  -6  -1   0  -16.10   13.00
   6   1   0   10.50    3.90
   6   1   0   10.80    3.90
  -6   1   0   11.80   16.20
  -7  -1   0  522.45   50.79
  -7   1   0  543.75   51.99
  -8  -1   0  128.09   36.80
  -8   1   0  109.49   33.70
  -9  -1   0  145.69   44.00
  -9   1   0  163.88   43.90
 -10  -1   0  369.66   63.69
 -10   1   0  240.78   55.79
   0  -2   0 9886.11  456.55
   0  -2   0 9999.00  458.35
   0   2   0 9793.92  456.35
   0   2   0 9945.30  460.05
  -1  -2   0  391.06   21.90
   1  -2   0  415.16   25.70
   1  -2   0  378.36   19.80
   1  -2   0  374.46   21.10
   1  -2   0  366.56   23.30
   1   2   0  424.36   20.30
  -1   2   0  415.36   19.40
  -1   2   0  425.66   22.60
   1   2   0  436.66   20.70
  -1   2   0  409.36   21.60
   1   2   0  414.76   22.80
  -2  -2   0  747.83   38.40
  -2  -2   0  718.53   38.50
   2  -2   0  803.02   44.30
   2  -2   0  723.83   39.80
   2  -2   0  743.43   38.70
  -2  -2   0  703.83   41.60
  -2   2   0  791.82   39.90
   2   2   0  803.52   38.10
  -2   2   0  830.72   45.60
  -2   2   0  854.61   38.80
   2   2   0  817.32   42.20
   3  -2   0  835.92   47.10
  -3  -2   0  857.91   51.19
   3  -2   0  842.42   46.10
  -3  -2   0  847.92   47.00
   3  -2   0  910.21   50.99
  -3   2   0  909.31   46.90
   3   2   0 1023.40   45.60
  -3   2   0 1013.50   55.19
   3   2   0  982.90   51.49
  -3   2   0  987.10   46.60
  -4  -2   0  233.98   27.80
   4  -2   0  229.38   25.60
   4  -2   0  190.48   14.90
  -4  -2   0  213.48   13.90
   4  -2   0  197.18   16.00
  -4   2   0  195.58   14.40
  -4   2   0  221.78   28.60
   4   2   0  196.58   12.80
   4   2   0  236.88   30.30
   5  -2   0  696.73   40.70
   5  -2   0  699.23   50.69
  -5  -2   0  703.53   49.99
   5   2   0  756.72   37.50
   5   2   0  729.13   50.19
  -5   2   0  763.72   52.79
  -6  -2   0   45.70   19.10
   6  -2   0   60.69   12.30
   6   2   0   72.59   13.30
  -6   2   0   61.89   23.00
   6   2   0   52.09   11.50
  -7  -2   0  126.49   30.70
  -7   2   0  131.49   32.40
  -8  -2   0   13.50   23.10
  -8   2   0   34.80   26.90
  -9  -2   0    6.20   30.00
  -9   2   0   22.40   37.20
 -10  -2   0   34.70   39.50
 -10   2   0   16.50   40.40
   0  -3   0   -1.90    1.30
   0  -3   0   -2.30    3.40
   0  -3   0   -2.10    3.00
   0  -3   0   -0.40    1.70
   0   3   0   -1.30    1.80
   0   3   0    8.10    4.60
   0   3   0    1.50    1.50
   1   3   0  226.18   12.50
   1   3   0  206.58   15.00
  -1   3   0  240.08   16.20
  -1   3   0  235.38   11.80
   1   3   0  229.48   12.90
  -1   3   0  214.18   14.50
  -2  -3   0  184.08   13.10
   2   3   0  181.18   11.40
  -2   3   0  175.18   14.10
   2   3   0  180.58   15.50
   2   3   0  193.08   11.30
  -2   3   0  194.28   12.60
   3  -3   0  236.28   19.60
  -3  -3   0  188.28   13.60
  -3  -3   0  212.28   13.80
   3  -3   0  188.98   14.10
  -3  -3   0  210.18   19.70
   3  -3   0  175.98   16.20
   3   3   0  200.28   12.80
   3   3   0  221.08   18.80
  -3   3   0  245.88   28.80
  -3   3   0  212.08   13.90
  -3   3   0  197.08   15.70
   4  -3   0  236.28   16.90
   4  -3   0  260.77   19.60
  -4  -3   0  242.28   23.60
   4  -3   0  260.87   23.40
  -4  -3   0  234.88   16.10
  -4   3   0  204.88   17.20
  -4   3   0  240.38   32.40
   4   3   0  234.98   14.90
  -4   3   0  247.88   16.70
   4   3   0  238.78   23.10
  -5  -3   0  730.53   47.40
   5  -3   0  634.24   36.90
  -5  -3   0  632.04   35.30
   5  -3   0  621.44   39.10
   5  -3   0  690.33   48.70
  -5   3   0  610.44   35.80
  -5   3   0  646.54   50.49
  -5   3   0  546.15   36.10
   5   3   0  640.24   33.50
   6  -3   0   11.50    8.00
   6  -3   0   -3.40    9.70
   6  -3   0    4.50   15.10
  -6  -3   0  -20.20   12.10
  -6   3   0   -0.70   17.00
   6   3   0    8.90    4.70
  -7  -3   0  368.96   51.29
   7   3   0  416.26   24.50
  -7   3   0  412.86   56.99
   7   3   0  385.86   24.70
  -8  -3   0  106.49   40.90
  -8   3   0  143.79   41.00
  -9  -3   0   44.50   32.60
 -10  -3   0  278.87   57.89
 -10   3   0  301.07   64.09
   0  -4   0 5039.50  240.38
   0  -4   0 5142.09  241.18
   0  -4   0 5108.59  239.68
   0  -4   0 5178.18  244.48
   0   4   0 5349.36  239.98
   0   4   0 5106.09  244.38
   0   4   0 5245.28  240.38
   1  -4   0  326.97   18.40
  -1  -4   0  313.37   18.50
  -1  -4   0  335.67   21.90
   1  -4   0  314.17   22.80
   1  -4   0  319.47   18.50
  -1  -4   0  301.17   22.00
  -1  -4   0  330.47   19.60
   1   4   0  352.66   21.30
  -1   4   0  387.76   18.10
  -1   4   0  380.86   21.40
  -1   4   0  360.56   23.40
   1   4   0  374.36   19.20
   1   4   0  381.36   18.80
  -2  -4   0 1568.44   76.69
   2  -4   0 1306.17   81.59
   2  -4   0 1524.15   78.19
  -2  -4   0 1619.34   74.99
   2  -4   0 1609.84   74.39
  -2  -4   0 1502.15   78.09
  -2   4   0 1581.54   75.49
   2   4   0 1568.54   73.79
  -2   4   0 1525.45   77.79
  -2   4   0 1481.25   71.19
   2   4   0 1506.65   77.39
   2   4   0 1443.36   72.89
   3  -4   0 1081.29   59.99
  -3  -4   0 1079.59   56.19
   3  -4   0 1013.90   55.49
  -3  -4   0 1114.49   55.49
   3  -4   0 1139.19   59.59
  -3  -4   0 1098.89   60.99
  -3   4   0 1055.19   58.09
  -3   4   0 1118.99   55.29
   3   4   0 1091.29   53.69
   3   4   0 1098.79   59.79
   3   4   0 1083.29   54.19
  -4  -4   0  174.18   25.50
   4  -4   0  158.58   15.00
   4  -4   0  174.08   22.80
   4  -4   0  188.18   21.00
  -4  -4   0  166.88   22.20
  -4   4   0  174.78   16.80
  -4   4   0  188.68   14.30
  -4   4   0  253.07   35.20
   4   4   0  189.48   13.30
   4   4   0  209.38   26.00
   5  -4   0 1197.58   65.89
   5  -4   0 1204.08   67.49
  -5  -4   0 1218.78   62.99
  -5  -4   0 1151.08   72.79
   5  -4   0 1163.68   70.29
   5   4   0 1224.28   60.89
  -5   4   0 1352.26   81.69
  -5   4   0 1247.58   62.99
  -5   4   0 1158.18   64.79
   6  -4   0   33.30   17.00
  -6  -4   0   31.20   18.10
   6  -4   0   33.60   10.50
  -6   4   0   34.30   26.30
   6   4   0   45.00    8.40
  -6   4   0   40.60   11.60
  -7  -4   0  192.38   37.50
   7  -4   0  196.48   29.20
   7   4   0  200.98   17.00
  -7   4   0  230.28   44.60
   7   4   0  241.28   17.30
  -8  -4   0   25.30   25.00
  -8   4   0   25.30   29.30
  -9  -4   0    8.10   30.20
  -9   4   0   23.10   37.70
 -10  -4   0  -19.40   30.80
 -10   4   0   42.80   41.90
   0  -5   0    9.80    5.20
   0  -5   0   12.20    7.00
   0  -5   0    3.00    2.50
   0  -5   0    8.20    3.00
   0   5   0    4.10    3.20
   0   5   0   11.00    3.20
   0   5   0   -1.90    4.70
   1  -5   0   41.30    5.50
  -1  -5   0   35.60    8.90
   1  -5   0   46.40    6.90
  -1  -5   0   39.40    5.80
  -1  -5   0   34.80    5.90
  -1  -5   0   49.60   10.80
   1  -5   0   32.50    9.50
   1  -5   0   37.30    5.40
  -1   5   0   52.79    5.50
   1   5   0   33.60    7.70
  -1   5   0   29.10    8.80
  -1   5   0   49.00    9.10
   1   5   0   41.00    5.90
  -2  -5   0  357.76   24.20
  -2  -5   0  339.27   25.00
   2  -5   0  354.06   29.40
   2  -5   0  346.37   20.10
  -2  -5   0  305.77   20.80
  -2   5   0  341.97   17.90
  -2   5   0  353.96   25.10
   2   5   0  356.46   19.70
   2   5   0  353.26   24.30
   2   5   0  370.96   20.50
  -2   5   0  362.76   23.20
   3  -5   0  119.89   13.20
   3  -5   0   88.29   15.80
  -3  -5   0  127.39   19.40
  -3  -5   0  145.19   16.80
   3  -5   0  110.39   17.90
  -3   5   0  121.69   13.90
   3   5   0  102.69    9.50
   3   5   0  125.29   27.40
   3   5   0  111.59   10.60
  -3   5   0  136.19   18.00
   4  -5   0  228.88   22.40
  -4  -5   0  188.78   17.30
   4  -5   0  246.58   27.60
   4  -5   0  197.58   17.40
  -4  -5   0  230.28   17.10
  -4  -5   0  237.68   29.30
  -4   5   0  217.48   16.40
   4   5   0  206.18   14.80
   4   5   0  218.18   15.00
  -4   5   0  213.78   20.20
   4   5   0  238.78   32.20
   5  -5   0  488.75   33.10
  -5  -5   0  584.14   43.50
   5  -5   0  468.85   38.10
  -5  -5   0  554.04   32.60
   5  -5   0  554.14   40.00
  -5   5   0  551.44   32.20
  -5   5   0  501.45   51.19
   5   5   0  529.95   30.00
  -5   5   0  471.65   35.60
   6  -5   0   -2.20   13.90
   6  -5   0   -9.50   13.80
  -6  -5   0    3.10   15.50
  -6   5   0   -0.90    6.60
   6   5   0    1.90    4.50
  -7  -5   0  519.15   52.19
  -7   5   0  407.16   61.49
   7   5   0  506.05   30.40
   7   5   0  476.35   30.70
  -8  -5   0  125.59   39.60
  -8   5   0   82.09   39.60
  -9  -5   0   95.19   36.90
  -9   5   0  132.69   50.49
   0  -6   0 3883.01  186.88
   0  -6   0 3905.91  188.28
   0  -6   0 4064.29  194.88
   0  -6   0 4111.29  189.58
   0   6   0 3888.21  193.88
   0   6   0 3983.50  186.98
   0   6   0 4098.99  188.48
   1  -6   0  289.17   24.20
  -1  -6   0  293.37   18.80
   1  -6   0  306.47   17.00
   1  -6   0  285.67   17.40
  -1  -6   0  288.67   23.60
  -1  -6   0  263.17   17.10
  -1  -6   0  284.27   21.50
  -1   6   0  298.17   23.90
  -1   6   0  273.47   16.20
   1   6   0  289.37   20.00
  -1   6   0  274.87   20.60
   1   6   0  279.17   17.30
   1   6   0  270.17   17.20
  -2  -6   0 1565.44   82.89
  -2  -6   0 1658.23   83.69
   2  -6   0 1601.44   76.69
   2  -6   0 1671.03   85.39
  -2   6   0 1603.84   74.89
   2   6   0 1643.24   77.59
  -2   6   0 1346.07   86.19
   2   6   0 1599.74   81.49
  -2   6   0 1466.65   80.49
   3  -6   0  706.63   38.50
  -3  -6   0  678.23   43.20
  -3  -6   0  749.13   46.50
   3  -6   0  712.33   45.90
   3   6   0  714.93   37.70
  -3   6   0  649.04   44.00
   3   6   0  725.03   44.50
  -3   6   0  708.53   34.70
   3   6   0  719.13   38.50
  -3   6   0  829.82   41.70
  -4  -6   0  245.78   30.90
   4  -6   0  205.58   17.80
   4  -6   0  222.68   27.80
  -4  -6   0  233.68   18.30
  -4   6   0  227.98   18.10
  -4   6   0  203.38   25.00
   4   6   0  222.38   16.40
   4   6   0  250.57   16.50
  -5  -6   0  576.64   37.90
  -5  -6   0  601.34   47.70
   5  -6   0  606.44   37.60
   5  -6   0  694.63   45.50
  -5   6   0  581.54   40.60
   5   6   0  625.54   34.40
   5   6   0  562.94   35.10
  -6  -6   0   36.90   20.60
   6  -6   0   17.10   16.70
  -6   6   0    7.60    7.90
   6   6   0   14.90    7.10
   6   6   0   14.50    6.40
  -7  -6   0  109.29   38.60
  -7   6   0  123.89   18.60
   7   6   0  125.09   14.90
   7   6   0  113.79   15.60
   7   6   0  119.89   15.90
  -8  -6   0   41.10   29.00
   8   6   0   17.00    9.20
   8   6   0   21.20   10.30
   8   6   0    9.90    7.70
  -8   6   0   15.30   37.20
  -9  -6   0   12.10   33.10
   9   6   0   -0.10    9.20
  -9   6   0   15.10   41.70
   0  -7   0    7.70    3.70
   0  -7   0    7.90    4.20
   0  -7   0    8.00    7.10
   0   7   0   31.60    5.80
   0   7   0   -1.10    4.00
  -1  -7   0   28.20   10.10
   1  -7   0   29.50    5.80
  -1  -7   0   47.10    9.50
  -1   7   0   27.30    8.90
  -1   7   0   30.10   11.50
   1   7   0   35.00    7.20
   1   7   0   38.40    6.50
   1   7   0   38.00    9.60
  -1   7   0   33.50    5.40
  -2  -7   0  357.36   27.60
   2  -7   0  314.77   19.10
  -2   7   0  343.37   27.40
  -2   7   0  265.07   23.70
  -2   7   0  331.77   19.20
   2   7   0  316.87   19.80
   2   7   0  324.47   20.20
  -3  -7   0  202.28   28.30
   3  -7   0  141.59   12.30
  -3  -7   0  186.48   25.50
  -3  -7   0  174.78   15.70
  -3   7   0  132.19   21.40
   3   7   0  158.88   21.50
   3   7   0  164.58   13.20
   3   7   0  155.38   13.10
  -3   7   0  184.18   21.10
  -3   7   0  153.98   10.30
  -3   7   0  151.28    9.70
   4  -7   0  230.78   28.90
  -4  -7   0  208.58   24.80
  -4  -7   0  200.88   30.40
   4  -7   0  202.78   16.90
  -4   7   0  214.38   26.80
   4   7   0  245.38   17.00
   4   7   0  221.38   16.30
   5  -7   0  373.26   35.20
  -5  -7   0  288.87   28.40
  -5  -7   0  409.96   46.80
  -5   7   0  410.56   27.10
   5   7   0  406.26   24.80
   5   7   0  347.67   24.10
  -6  -7   0    7.40   17.10
   6  -7   0   20.30   18.50
  -6  -7   0    3.90   10.80
   6   7   0    7.70    5.80
   6   7   0    4.10    5.20
  -6   7   0    0.80    8.40
   6   7   0   -6.20   12.00
  -7  -7   0  388.26   56.19
   7   7   0  443.66   28.80
  -7   7   0  435.86   31.40
   7   7   0  389.16   28.60
   7   7   0  367.56   27.30
  -8  -7   0  115.49   38.10
   8   7   0   80.49   14.50
   0  -8   0 2549.65  130.09
   0   8   0 2781.32  129.89
   0   8   0 2616.44  126.59
  -1  -8   0  148.99   20.70
  -1  -8   0  110.79   13.10
   1   8   0  102.69   11.40
   1   8   0  117.89   14.10
  -1   8   0   95.89    9.10
  -1   8   0   99.59   16.20
  -2  -8   0  977.70   52.69
  -2  -8   0 1002.80   57.89
   2   8   0 1005.20   50.09
   2   8   0  985.60   50.19
  -2   8   0  788.92   54.09
  -2   8   0  962.20   47.20
  -2   8   0  950.00   47.60
   2   8   0  912.41   54.09
  -3  -8   0  570.54   41.00
   3   8   0  509.55   30.30
  -3   8   0  546.75   35.10
   3   8   0  516.55   30.00
  -3   8   0  495.05   26.10
  -3   8   0  481.75   26.80
  -4  -8   0  135.29   27.20
   4   8   0  130.99   13.50
  -4   8   0  158.18   20.10
   4   8   0  127.69   14.90
  -5  -8   0  360.96   45.30
  -5   8   0  370.36   27.40
   5   8   0  366.16   25.60
   5   8   0  367.16   24.80
   6  -8   0   -3.00   17.30
  -6  -8   0    3.90   31.20
   6   8   0   22.80   12.80
   6   8   0    7.80    7.60
  -6   8   0    6.60    9.80
  -7  -8   0  115.89   35.60
   7   8   0   70.29   14.00
   7   8   0   48.90   11.90
  -7   8   0   64.09   15.40
   7   8   0   79.49   16.20
  -8  -8   0    1.20   27.60
   8   8   0   11.70   10.40
   0  -9   0    5.20    9.30
   0   9   0    3.90    7.20
   0   9   0   -4.70    2.70
  -1  -9   0    1.40    9.90
  -1   9   0    2.90    3.70
   1   9   0    9.50    6.50
  -1   9   0    1.10    3.80
   1   9   0   -1.90    4.00
  -1   9   0    1.00    8.80
  -2  -9   0  192.28   27.20
  -2   9   0  150.48   11.60
   2   9   0  133.59   14.10
  -2   9   0  150.28   10.90
   2   9   0  140.39   23.10
  -2   9   0  136.49   21.20
   2   9   0  131.79   13.00
  -3  -9   0  123.69   24.70
  -3   9   0   95.99    9.40
  -3   9   0   83.19    8.10
   3   9   0  102.69   13.00
  -3   9   0  104.79   17.90
   3   9   0  107.49   14.30
  -4  -9   0   52.49   20.60
   4   9   0   60.89   10.50
   4   9   0   48.90   12.50
  -4   9   0   62.39   14.20
  -5  -9   0  283.27   41.60
  -5   9   0  276.77   24.60
   5   9   0  246.88   20.60
   5   9   0  281.77   21.90
  -6  -9   0    3.60   20.10
   6   9   0   -4.80    6.70
  -6   9   0   -2.40    9.30
   6   9   0   -0.20    6.60
   6   9   0   -1.80    7.50
  -7  -9   0  175.48   42.80
  -7   9   0  215.48   26.90
   7   9   0  244.28   22.30
   0 -10   0 1513.35   81.29
   0  10   0 1468.65   80.39
   0  10   0 1536.75   75.29
   0  10   0 1472.35   75.49
  -1 -10   0  155.08   25.20
   1  10   0  101.89   13.10
   1  10   0  124.69   16.80
  -1  10   0   79.19   18.10
  -1  10   0  121.59   12.70
  -1  10   0  115.69   12.70
   1  10   0  103.09   12.90
  -2 -10   0  645.84   46.60
   2  10   0  596.74   35.70
   2  10   0  629.14   35.40
  -2  10   0  584.24   32.00
   2  10   0  639.04   37.00
  -2  10   0  516.95   41.80
  -2  10   0  583.24   33.00
  -3 -10   0  490.05   43.80
  -3  10   0  511.85   38.30
   3  10   0  503.25   31.40
   3  10   0  519.55   32.10
   3  10   0  502.85   35.60
  -3  10   0  503.45   27.10
  -3  10   0  488.95   28.20
  -4 -10   0   72.99   24.40
   4  10   0   69.19   12.50
   4  10   0   81.99   13.50
  -4  10   0   92.49   18.00
   4  10   0   87.59   14.20
  -4  10   0   76.29    7.20
   5  10   0  370.16   26.10
   5  10   0  282.07   23.90
   5  10   0  315.97   25.70
  -5  10   0  339.37   28.60
  -6 -10   0   -2.90   23.50
  -6  10   0    7.90   12.20
   6  10   0   -5.80    8.20
   0  11   0    6.60    5.30
   0  11   0   -3.90    4.40
   0  11   0  -12.60    8.20
  -1 -11   0   38.30   17.40
  -1  11   0   37.00    8.00
   1  11   0   42.80    9.30
  -1  11   0   20.80   13.70
  -1  11   0   39.90    8.50
   1  11   0   42.60    8.80
  -2 -11   0  108.79   25.50
  -2  11   0   87.79   11.70
  -2  11   0   61.39   17.60
   2  11   0   90.59   13.00
   2  11   0   96.99   15.50
   2  11   0   71.19   13.00
  -2  11   0   69.29    9.30
  -3 -11   0   26.10   20.00
  -3  11   0   25.60    7.60
   3  11   0   47.70   12.20
   3  11   0   30.50    9.20
  -3  11   0   30.80    6.50
   3  11   0   30.90   10.10
  -3  11   0   51.79   17.20
  -4 -11   0  102.49   29.80
   4  11   0   70.69   13.60
  -4  11   0   58.59    8.50
  -4  11   0   64.79    7.70
   4  11   0   54.29   11.50
  -4  11   0   60.89   17.00
   4  11   0   58.99   12.00
  -5 -11   0  158.98   34.90
   5  11   0  127.99   18.10
  -5  11   0  124.19   21.10
   0  12   0  831.02   46.30
   0  12   0  813.62   53.79
   0  12   0  776.52   44.20
  -1 -12   0   98.89   25.90
  -1  12   0   55.99   10.70
   1  12   0   57.39   12.50
   1  12   0   60.49   10.60
   1  12   0   50.69   15.10
  -1  12   0   63.29   22.50
  -1  12   0   51.29    9.50
  -2 -12   0  267.17   38.40
  -2  12   0  287.37   36.10
   2  12   0  353.76   28.20
  -2  12   0  361.26   22.80
   2  12   0  302.77   23.70
  -2  12   0  298.47   20.30
   2  12   0  290.17   26.00
  -3 -12   0  233.18   38.40
  -3  12   0  304.27   40.70
  -3  12   0  272.17   19.40
   3  12   0  270.07   24.80
   3  12   0  273.57   24.00
  -3  12   0  254.57   17.30
   3  12   0  245.68   22.10
 -10   0   1   25.00   35.80
  -9   0   1  114.79   38.60
  -8   0   1    9.80   22.70
  -7   0   1  826.52   62.99
   6   0  -1  169.28   12.00
  -6   0   1  232.38   35.40
   6   0  -1  180.58   12.50
   5   0  -1 1138.39   57.69
  -5   0   1 1023.80   63.89
   5   0  -1 1030.80   61.69
   5   0  -1 1059.09   51.79
   5   0  -1 1063.79   51.89
   4   0  -1 2379.56  124.39
   4   0  -1 2581.44  121.29
   4   0  -1 2443.16  116.89
   4   0  -1 2530.05  116.89
  -4   0   1 2537.15  126.79
   3   0  -1  205.08   13.80
   3   0  -1  170.58   15.90
   3   0  -1  192.78   10.90
  -3   0   1  205.48   17.70
   3   0  -1  195.68   10.70
  -2   0   1 5655.53  271.77
   2   0  -1 5827.42  273.07
   2   0  -1 5955.60  270.27
   1   0  -1  318.97   15.90
   1   0  -1  314.77   14.90
  -1   0   1  326.67   14.90
   1   0  -1  309.37   16.40
  -1   0   1  292.47   15.80
  -1   0   1  277.67   16.20
  -1   0  -1 6093.39  288.47
  -1   0  -1 6311.07  286.67
   1   0   1 6132.79  288.07
   1   0   1 6168.38  287.07
   2   0   1   31.80    3.30
   2   0   1   28.00    8.70
  -2   0  -1   34.50    3.00
  -2   0  -1   45.80   11.20
  -3   0  -1 2944.31  148.09
  -3   0  -1 2986.50  138.89
   3   0   1 3040.20  146.69
   3   0   1 2957.70  138.39
   4   0   1   13.80    9.80
   4   0   1   11.00    2.50
  -4   0  -1   10.80    3.20
  -4   0  -1   10.90    9.90
  -5   0  -1  596.34   31.60
  -5   0  -1  624.64   47.30
   5   0   1  621.74   33.10
   5   0   1  589.04   42.80
  -6   0  -1  194.28   33.20
   6   0   1  219.38   20.60
  -7   0  -1   15.40   21.40
  -8   0  -1   17.30   24.60
  -9   0  -1  -16.30   28.70
 -10   0  -1   14.80   39.40
 -10  -1   1   69.79   39.20
 -10   1   1  116.69   45.70
  -9  -1   1  345.87   54.79
  -9   1   1  300.47   71.69
  -8  -1   1  -18.70   21.00
  -8   1   1   -3.40   22.10
  -7  -1   1  325.27   43.70
  -7   1   1  351.56   47.20
  -6  -1   1  118.39   24.50
   6  -1  -1  177.68   21.80
   6   1  -1  123.69   10.00
   6   1  -1  109.99    9.90
  -6   1   1  116.69   27.90
   5  -1  -1  113.59    7.80
   5  -1  -1  118.99    7.60
  -5  -1   1  113.19   20.50
   5  -1  -1  127.39   31.70
   5   1  -1  118.29    9.00
  -5   1   1  148.79   25.10
   5   1  -1  120.59    9.00
   5   1  -1  105.29   19.20
  -4  -1   1  439.76   31.60
   4  -1  -1  446.76   30.40
   4  -1  -1  425.06   26.10
   4  -1  -1  422.96   21.70
   4   1  -1  434.86   23.20
   4   1  -1  451.75   30.70
  -4   1   1  436.96   32.30
   4   1  -1  454.45   23.10
   3  -1  -1    0.20    5.50
  -3  -1   1    1.70    6.20
   3   1  -1   18.20    3.40
  -3   1   1   17.60    4.70
   3   1  -1   15.30    7.30
   3   1  -1   23.30    3.60
  -3   1   1   20.60    8.70
   2  -1  -1   28.20    6.70
   2  -1  -1   30.10    4.60
  -2  -1   1   35.20    7.80
   2  -1  -1   29.50    5.20
   2   1  -1   29.90    3.70
   2   1  -1   35.20    4.00
  -2   1   1   37.70    5.50
   2   1  -1   26.50    6.80
   1  -1  -1   51.99    2.80
   1  -1  -1   51.79    4.60
  -1  -1   1   63.39    6.10
  -1  -1   1   50.69    4.40
   1  -1  -1   51.29    4.50
  -1   1   1   41.40    5.20
   1   1  -1   38.70    6.10
   0  -1  -1 2143.29   92.09
   0  -1   1 2143.29   91.79
   0   1  -1 1712.23   91.39
   0   1  -1 1876.11   94.09
   0   1  -1 2025.60   91.79
   1  -1   1  145.99   14.30
   1  -1   1  139.99   10.20
  -1  -1  -1  143.89   11.60
  -1  -1  -1  155.88    8.30
   1   1   1  173.68   11.80
   1   1   1  152.38    8.10
  -1   1  -1  150.18   15.20
  -1   1  -1  148.29    9.90
  -2  -1  -1 1006.10   50.89
   2  -1   1 1007.40   52.99
  -2  -1  -1 1037.70   56.49
   2  -1   1 1065.09   51.69
   2  -1   1  983.20   56.49
   2   1   1 1140.49   50.79
  -2   1  -1 1167.38   59.59
   2   1   1 1142.39   56.29
  -2   1  -1 1088.59   52.59
   3  -1   1 3079.99  149.09
  -3  -1  -1 3032.20  155.48
   3  -1   1 3125.09  154.98
  -3  -1  -1 3070.59  147.69
   3   1   1 3335.27  154.98
  -3   1  -1 3308.27  158.08
   3   1   1 3194.38  147.19
   4  -1   1   16.30   10.30
  -4  -1  -1   -0.60    9.90
   4  -1   1    3.50    4.10
  -4  -1  -1    4.60    2.90
   4  -1   1    5.90    1.70
   4   1   1    3.80    2.20
   4   1   1    1.00    8.70
  -4   1  -1    6.50   10.30
  -4   1  -1    2.80    1.90
  -5  -1  -1 1414.56   94.09
   5  -1   1 1584.34   71.69
   5  -1   1 1529.85   77.69
  -5  -1  -1 1472.25   74.49
   5  -1   1 1435.36   84.29
   5   1   1 1551.74   85.59
  -5   1  -1 1647.44   91.29
   5   1   1 1528.55   73.09
  -6  -1  -1  220.48   34.50
   6  -1   1  282.67   22.50
  -6   1  -1  265.47   39.80
   6   1   1  269.57   16.00
  -7  -1  -1  296.37   46.20
  -7   1  -1  326.07   47.10
  -8  -1  -1  432.56   58.59
  -8   1  -1  491.35   66.49
  -9  -1  -1   -6.30   26.20
  -9   1  -1  -27.00   29.90
 -10  -1  -1  244.48   58.29
 -10   1  -1  317.47   65.49
 -10  -2   1   37.80   35.50
 -10   2   1   -4.50   35.10
  -9  -2   1  100.09   36.10
  -9   2   1   78.59   37.90
  -8  -2   1  -10.30   20.20
  -8   2   1   -6.90   21.20
  -7  -2   1  630.44   52.59
   7   2  -1  603.34   39.70
  -7   2   1  546.35   52.69
  -6  -2   1  108.09   27.60
   6  -2  -1  123.79   17.40
   6  -2  -1  114.79   23.10
  -6   2   1  105.49   25.40
   6   2  -1  126.99   13.70
   6   2  -1  126.79   13.80
   5  -2  -1  868.51   54.09
  -5  -2   1  907.01   62.59
   5   2  -1  910.31   55.29
   5   2  -1  935.21   45.80
  -5   2   1  905.31   58.29
   5   2  -1  890.41   45.80
  -4  -2   1 1704.23   90.29
   4  -2  -1 1792.82   84.59
   4  -2  -1 1699.53   87.99
  -4   2   1 1643.04   90.99
  -4   2   1 1682.93   84.09
   4   2  -1 1645.84   89.49
   4   2  -1 1728.83   82.09
   3  -2  -1  418.66   22.40
  -3  -2   1  409.06   26.80
   3  -2  -1  408.26   22.60
   3  -2  -1  396.46   24.90
   3   2  -1  344.17   20.30
  -3   2   1  361.46   21.80
   3   2  -1  358.46   25.30
  -3   2   1  374.66   21.80
  -3   2   1  335.87   26.20
  -2  -2   1 1858.91   90.49
  -2  -2   1 1972.90   94.09
   2  -2  -1 1956.80   92.39
   2  -2  -1 1878.01   91.99
   2  -2  -1 1959.60   91.39
  -2   2   1 1980.60   91.29
  -2   2   1 1865.91   93.89
   2   2  -1 1922.11   90.49
  -2   2   1 1833.12   91.69
   2   2  -1 1860.71   93.39
   1  -2  -1  421.06   24.20
  -1  -2   1  449.86   23.30
  -1  -2   1  395.56   22.00
   1  -2  -1  445.06   20.00
   1  -2  -1  442.66   23.10
  -1   2   1  386.16   19.40
   1   2  -1  384.96   20.80
   1   2  -1  381.46   21.90
  -1   2   1  366.36   22.00
   0  -2   1 5707.43  261.27
   0  -2   1 5659.53  265.97
   0  -2  -1 5512.95  261.97
   0   2  -1 5657.23  264.07
   0   2   1 5698.73  261.87
   0   2  -1 5747.23  261.37
   0   2  -1 5704.13  261.97
  -1  -2  -1 4334.67  192.98
   1  -2   1 4327.67  195.88
  -1   2  -1 4177.08  191.98
   1   2   1 4186.38  195.48
   1   2   1 3934.21  192.68
   1   2   1 4085.99  192.98
  -1   2  -1 4042.00  195.28
  -1   2  -1 4232.78  193.38
   2  -2   1  306.87   20.10
   2  -2   1  316.67   17.70
   2  -2   1  291.97   24.10
  -2  -2  -1  305.47   17.40
  -2  -2  -1  290.47   21.90
   2   2   1  328.87   17.10
  -2   2  -1  364.06   18.70
  -2   2  -1  333.27   27.60
  -2   2  -1  329.97   19.70
   2   2   1  350.96   22.20
   3  -2   1 1132.79   56.69
   3  -2   1 1115.49   63.19
   3  -2   1 1140.59   59.09
  -3  -2  -1 1156.58   56.29
  -3  -2  -1 1130.09   63.29
  -3   2  -1 1159.58   58.09
  -3   2  -1 1180.98   56.69
   3   2   1 1140.09   62.39
  -3   2  -1 1174.08   67.69
   4  -2   1   39.50    7.80
  -4  -2  -1   31.10    5.60
  -4  -2  -1   32.20   12.50
   4  -2   1   37.70    8.90
   4  -2   1   35.40   13.20
  -4   2  -1    6.10   12.80
   4   2   1   -0.10    8.70
  -5  -2  -1  344.67   38.60
  -5  -2  -1  276.57   17.50
   5  -2   1  253.77   19.30
   5  -2   1  297.97   33.10
  -5   2  -1  276.47   39.20
   5   2   1  231.88   15.40
   6  -2   1  168.98   16.90
  -6  -2  -1  173.88   32.40
  -6  -2  -1  149.09   13.10
  -6   2  -1  176.18   33.50
   6   2   1  132.29   10.90
  -7  -2  -1  -13.30   16.20
  -7   2  -1    2.70   21.80
  -8  -2  -1  -33.00   39.00
  -8   2  -1   -9.70   23.70
  -9  -2  -1   15.00   31.20
  -9   2  -1    8.30   33.30
 -10  -2  -1   38.40   37.40
 -10   2  -1   73.49   47.50
 -10  -3   1   86.19   42.10
 -10   3   1   70.79   41.50
  -9  -3   1  255.67   49.00
  -9   3   1  287.37   54.39
  -8   3   1   10.30   26.80
  -7  -3   1  383.76   49.80
  -7   3   1  362.36   51.09
   7   3  -1  341.77   23.20
   7   3  -1  378.06   23.20
  -6  -3   1   34.80   18.10
   6  -3  -1   18.00    9.90
   6  -3  -1   49.10   17.20
  -6   3   1   70.89   36.40
   6   3  -1   53.89    8.30
   6   3  -1   50.99    8.20
   5  -3  -1   88.59   17.10
   5  -3  -1   87.69   13.90
  -5  -3   1  105.39   21.30
   5  -3  -1   74.89   13.40
   5   3  -1   86.09    8.50
  -5   3   1   93.49   21.90
  -5   3   1  109.69   14.40
   5   3  -1  107.99    9.40
   4  -3  -1  295.87   23.20
   4  -3  -1  263.27   20.40
   4  -3  -1  251.77   18.70
  -4  -3   1  289.87   25.30
  -4   3   1  276.57   18.80
  -4   3   1  341.27   35.20
   4   3  -1  287.57   24.00
  -4   3   1  238.98   18.70
   4   3  -1  300.37   17.30
   3  -3  -1   37.60    9.60
  -3  -3   1   31.70   10.30
   3  -3  -1   30.30    7.50
   3   3  -1   60.99    7.20
  -3   3   1   53.09   14.40
  -3   3   1   49.10    9.40
  -3   3   1   51.09    7.50
   3   3  -1   46.90   10.60
  -2  -3   1  324.17   23.00
   2  -3  -1  331.77   20.60
   2  -3  -1  363.96   22.30
  -2  -3   1  352.36   20.80
   2   3  -1  362.86   19.40
  -2   3   1  344.27   21.80
  -2   3   1  368.66   20.70
   2   3  -1  331.27   20.60
   2   3  -1  341.97   22.60
  -1  -3   1  224.68   15.60
   1  -3  -1  235.08   12.40
  -1  -3   1  214.98   15.70
  -1  -3   1  208.98   13.60
   1  -3  -1  244.98   14.10
   1  -3  -1  232.78   16.40
  -1   3   1  281.17   16.00
   0  -3   1   30.20    6.70
   0  -3  -1   40.00    4.70
   0  -3  -1   46.80    8.20
   0  -3  -1   17.20    2.90
   0  -3   1   21.30    5.20
   0  -3  -1   26.60    4.80
   0  -3   1   28.70    3.40
   0   3  -1   26.10    6.20
   0   3   1   25.70    3.40
   0   3   1   24.50    4.40
   0   3   1   27.70    4.40
   0   3  -1   26.50    4.50
   0   3  -1   26.90    3.70
  -1  -3  -1  160.48    9.80
   1  -3   1  123.09   12.60
  -1  -3  -1  124.19   12.20
  -1  -3  -1  142.49   12.50
  -1  -3  -1  153.68   10.00
  -1   3  -1  178.08    8.80
  -1   3  -1  170.68    9.10
   1   3   1  170.18    9.70
  -1   3  -1  142.19   10.90
  -1   3  -1  185.88   13.70
   1   3   1  167.38    9.80
   1   3   1  152.68   12.40
  -2  -3  -1  357.26   25.30
   2  -3   1  372.16   24.40
   2  -3   1  339.07   28.70
  -2  -3  -1  379.46   21.20
   2  -3   1  329.77   21.10
  -2   3  -1  384.26   24.10
   2   3   1  443.26   21.10
  -2   3  -1  428.26   21.50
   2   3   1  402.56   20.60
   2   3   1  413.36   25.60
   3  -3   1 1467.45   81.29
  -3  -3  -1 1560.44   81.29
  -3  -3  -1 1547.65   74.59
   3  -3   1 1490.45   77.99
   3  -3   1 1477.45   74.49
   3   3   1 1586.04   73.69
  -3   3  -1 1569.44   77.29
  -3   3  -1 1450.55   86.69
   3   3   1 1519.75   79.99
  -3   3  -1 1563.14   74.29
   4  -3   1    9.40    8.00
   4  -3   1   10.10    4.80
  -4  -3  -1   -4.40    8.10
   4  -3   1    9.60   10.70
  -4  -3  -1    8.30    4.10
   4   3   1    3.40    9.00
  -4   3  -1   -3.60    4.90
  -4   3  -1    9.50    4.50
  -4   3  -1   -2.30   13.50
   4   3   1    0.90    2.30
   5  -3   1 1080.09   56.29
  -5  -3  -1 1057.09   55.29
   5  -3   1 1202.58   66.49
   5  -3   1 1064.99   60.19
  -5  -3  -1 1129.19   68.39
  -5   3  -1 1026.50   72.29
  -5   3  -1  952.40   56.19
   5   3   1 1081.29   53.39
   6  -3   1  288.47   22.20
  -6  -3  -1  265.67   19.60
  -6  -3  -1  352.56   44.50
  -6   3  -1  207.78   20.80
   6   3   1  284.27   17.60
  -6   3  -1  298.37   44.40
  -7  -3  -1  263.17   43.60
   7   3   1  340.97   20.80
  -7   3  -1  243.78   47.40
  -8  -3  -1  469.95   64.19
  -8   3  -1  361.96   61.79
  -9  -3  -1  -17.50   28.20
  -9   3  -1   14.10   37.50
 -10  -3  -1  368.46   66.59
 -10   3  -1  281.37   68.89
 -10  -4   1  -23.80   30.10
 -10   4   1   41.80   43.10
  -9  -4   1   65.49   34.10
  -9   4   1   75.39   41.20
  -8  -4   1  -15.40   18.60
  -8   4   1  -15.30   24.40
  -7  -4   1  448.66   57.19
   7   4  -1  522.85   31.10
   7   4  -1  500.05   31.30
  -7   4   1  638.14   58.99
   6  -4  -1   59.59   15.00
   6  -4  -1   89.99   21.20
  -6  -4   1  104.89   25.90
   6   4  -1   62.99    9.30
  -6   4   1   70.49   26.00
   6   4  -1   72.19   11.30
  -6   4   1   66.39   12.40
  -5  -4   1 1158.88   67.99
   5  -4  -1 1078.49   61.49
   5  -4  -1 1144.39   63.59
   5  -4  -1 1104.59   59.09
  -5   4   1 1129.79   58.29
   5   4  -1 1027.50   55.79
  -5   4   1 1115.19   72.09
   5   4  -1 1081.59   55.89
   4  -4  -1 1062.99   58.89
   4  -4  -1 1051.69   55.99
   4  -4  -1 1025.00   58.09
  -4  -4   1 1090.39   62.69
  -4   4   1  992.00   56.69
   4   4  -1 1081.79   53.79
  -4   4   1 1065.79   66.69
  -4   4   1 1111.89   55.39
   4   4  -1 1047.90   60.89
  -3  -4   1  124.29   12.60
  -3  -4   1  120.49   11.20
   3  -4  -1  157.58   17.80
   3  -4  -1  126.09   12.60
  -3  -4   1  171.18   20.60
   3  -4  -1  163.18   15.70
  -3   4   1  169.38   13.00
   3   4  -1  142.39   10.90
  -3   4   1  153.08   17.10
   3   4  -1  182.08   17.00
   2  -4  -1 2919.31  140.59
  -2  -4   1 2809.42  138.59
   2  -4  -1 3073.79  137.39
  -2  -4   1 2837.22  136.89
  -2  -4   1 2866.81  140.29
   2  -4  -1 2842.12  133.99
  -2   4   1 2748.02  139.59
   2   4  -1 2896.31  136.19
   2   4  -1 2872.81  138.89
   2   4  -1 2912.31  139.69
   2   4  -1 2843.52  135.19
  -2   4   1 2846.82  133.39
  -2   4   1 2958.10  138.39
  -1  -4   1  336.97   22.70
   1  -4  -1  375.26   23.90
   1  -4  -1  407.26   19.90
  -1  -4   1  358.76   22.50
   1  -4  -1  388.96   18.70
   1   4  -1  349.47   18.60
  -1   4   1  333.77   21.60
  -1   4   1  349.67   18.00
   1   4  -1  329.67   19.30
   1   4  -1  292.27   22.10
   1   4  -1  301.87   20.80
   0  -4  -1 5916.81  270.77
   0  -4  -1 5915.51  272.17
   0  -4   1 5481.05  271.77
   0  -4   1 5754.22  275.17
   0  -4   1 5692.03  270.07
   0  -4  -1 5974.50  275.57
   0   4   1 6109.89  271.57
   0   4   1 5624.64  270.77
   0   4  -1 5677.13  274.87
   0   4  -1 5932.91  270.87
   0   4  -1 6018.80  270.77
   0   4   1 5929.61  270.47
   1  -4   1 2472.05  121.49
   1  -4   1 2641.24  115.99
  -1  -4  -1 2588.34  116.69
  -1  -4  -1 2542.65  121.09
  -1  -4  -1 2475.05  119.39
  -1   4  -1 2406.16  115.39
   1   4   1 2429.06  118.79
   1   4   1 2381.86  116.29
   1   4   1 2452.85  116.49
  -1   4  -1 2516.65  115.79
  -1   4  -1 2369.76  117.89
  -1   4  -1 2380.26  120.79
   2  -4   1  168.78   11.70
   2  -4   1  251.47   29.50
  -2  -4  -1  166.88   14.90
  -2  -4  -1  176.38   17.20
   2  -4   1  164.68   16.30
  -2   4  -1  200.28   13.20
  -2   4  -1  163.68    9.60
   2   4   1  201.38   16.60
  -2   4  -1  196.98    9.80
  -2   4  -1  153.68   15.00
   2   4   1  166.98   11.20
   2   4   1  172.58   11.50
   3  -4   1 1589.64   84.49
   3  -4   1 1692.63   92.19
  -3  -4  -1 1750.42   91.19
  -3  -4  -1 1736.23   86.49
  -3  -4  -1 1812.02   85.09
   3  -4   1 1764.92   89.39
   3   4   1 1722.73   83.49
   3   4   1 1721.43   89.79
  -3   4  -1 1821.02   88.49
  -3   4  -1 1727.63   84.09
   3   4   1 1738.83   83.29
   4  -4   1    4.10    5.60
   4  -4   1   10.70    9.40
  -4  -4  -1    1.20    5.30
   4  -4   1   10.80   11.70
  -4  -4  -1    2.40   10.00
  -4  -4  -1    8.10    4.00
   4   4   1   17.60   10.60
  -4   4  -1    7.10    6.50
  -4   4  -1   13.30    5.20
  -4   4  -1   12.00   15.30
  -5  -4  -1  468.35   39.50
   5  -4   1  369.76   36.60
   5  -4   1  403.36   26.80
  -5  -4  -1  433.46   26.60
   5  -4   1  448.56   36.50
  -5   4  -1  401.96   26.00
   5   4   1  425.56   24.30
  -5   4  -1  413.86   28.70
  -5   4  -1  384.26   51.09
  -6  -4  -1  225.58   36.70
   6  -4   1   92.39   19.90
  -6  -4  -1  116.89   15.20
   6  -4   1  114.59   16.10
  -6   4  -1  100.59   16.60
  -6   4  -1  189.08   39.50
   6   4   1  114.69   10.90
  -7  -4  -1   10.80   23.10
   7  -4   1   30.10   18.40
   7   4   1    5.40    4.90
  -7   4  -1   15.30    9.80
  -7   4  -1   44.60   29.40
  -8  -4  -1   -9.50   21.60
  -8   4  -1   14.30   29.90
  -9  -4  -1   -9.40   27.30
  -9   4  -1  -17.70   33.80
  -9  -5   1  221.58   47.90
  -9   5   1  190.98   51.19
  -8  -5   1  -21.00   20.00
  -8   5   1  -29.70   26.70
   8   5  -1   -5.30    6.30
   8   5  -1   -0.80    9.40
  -7  -5   1  297.47   43.30
   7   5  -1  304.77   22.10
  -7   5   1  296.87   51.59
   7   5  -1  306.27   22.70
   6  -5  -1   53.29   16.80
  -6  -5   1   56.49   22.40
   6  -5  -1   53.99   17.50
  -6   5   1   50.59   12.10
   6   5  -1   56.69   10.30
   6   5  -1   59.49   10.00
  -6   5   1   65.19   28.20
   5  -5  -1   40.00   11.50
  -5  -5   1   53.59   18.30
   5  -5  -1   24.20   13.40
   5  -5  -1   49.10   14.50
  -5   5   1   45.70   10.20
   5   5  -1   49.60    8.70
   5   5  -1   64.09    9.30
  -5   5   1   57.69   23.20
  -4  -5   1  172.28   25.20
   4  -5  -1  139.69   19.20
  -4  -5   1  124.59   15.90
   4  -5  -1  195.38   22.80
   4   5  -1  167.28   12.80
   4   5  -1  161.78   26.10
  -4   5   1  160.48   14.40
   3  -5  -1   -1.70    7.10
  -3  -5   1    2.90    5.50
  -3  -5   1    5.30    8.20
   3  -5  -1    5.60    5.30
  -3   5   1    1.10    6.10
  -3   5   1    6.30    5.30
   3   5  -1   10.40    9.10
   3   5  -1    7.90    4.00
   3   5  -1    5.00    3.00
   2  -5  -1   10.90    4.40
  -2  -5   1    1.30    5.00
   2  -5  -1    6.30    2.50
  -2  -5   1    2.30    6.60
  -2  -5   1    6.90    3.80
   2   5  -1   15.40    7.30
   2   5  -1    7.00    3.80
   2   5  -1   13.50    3.90
  -2   5   1    8.10    2.10
  -2   5   1    1.40    5.00
  -1  -5   1   54.29   10.30
   1  -5  -1   58.89    7.10
  -1  -5   1   40.30    9.40
  -1  -5   1   42.80    7.70
   1  -5  -1   53.39   11.30
   1  -5  -1   53.29    6.60
  -1   5   1   41.20    5.00
   1   5  -1   61.89   11.20
   1   5  -1   67.59    7.40
   1   5  -1   47.40    8.70
  -1   5   1   60.99   10.50
   1   5  -1   43.90    6.70
   0  -5   1  278.57   19.00
   0  -5  -1  289.37   17.20
   0  -5   1  285.37   16.20
   0  -5  -1  278.97   18.30
   0  -5  -1  290.37   16.70
   0  -5   1  288.07   22.00
   0  -5  -1  295.37   22.20
   0   5   1  320.87   18.20
   0   5   1  282.47   16.30
   0   5  -1  280.37   21.70
   0   5  -1  318.47   17.40
   0   5  -1  286.97   16.70
   1  -5   1  170.18   17.00
  -1  -5  -1  188.08   16.70
  -1  -5  -1  189.38   12.80
  -1  -5  -1  177.78   15.30
  -1  -5  -1  173.68   11.80
   1  -5   1  165.28   11.00
   1   5   1  187.58   12.00
  -1   5  -1  183.28   16.70
  -1   5  -1  183.18   11.20
  -1   5  -1  166.38   13.80
  -1   5  -1  184.18   10.90
   1   5   1  189.98   12.00
   1   5   1  204.28   14.90
   2  -5   1  354.86   37.80
  -2  -5  -1  297.47   23.30
  -2  -5  -1  283.97   18.90
   2  -5   1  282.67   17.20
   2  -5   1  260.17   26.10
  -2  -5  -1  293.87   22.10
  -2   5  -1  297.47   22.80
  -2   5  -1  301.87   16.00
  -2   5  -1  310.07   20.40
  -2   5  -1  318.07   16.10
   2   5   1  311.87   18.00
   2   5   1  301.67   22.30
   2   5   1  317.67   17.80
   3  -5   1 1068.09   52.29
   3  -5   1 1050.69   59.09
   3  -5   1 1022.70   61.69
  -3  -5  -1 1129.89   60.29
  -3  -5  -1 1062.69   55.69
   3   5   1  994.70   51.49
  -3   5  -1 1003.50   52.49
  -3   5  -1  951.70   56.59
   3   5   1  906.41   55.29
   3   5   1 1104.79   69.39
  -4  -5  -1    6.20    5.00
   4  -5   1  -13.60    8.20
  -4  -5  -1    9.10   11.30
   4  -5   1   10.20    6.10
   4  -5   1   -5.50   10.30
  -4  -5  -1    3.60    6.60
   4   5   1    1.30    3.70
  -4   5  -1    2.70    4.40
   4   5   1    0.30    2.70
  -4   5  -1   -9.70    6.20
   5  -5   1  972.10   53.69
  -5  -5  -1 1016.70   62.99
  -5  -5  -1  876.11   49.70
   5  -5   1  874.71   58.59
   5  -5   1  861.31   57.09
  -5   5  -1  887.51   48.80
   5   5   1  871.31   47.10
   5   5   1  929.51   47.60
  -6  -5  -1  238.28   39.30
  -6  -5  -1  249.97   20.10
   6  -5   1  229.88   21.90
  -6   5  -1  182.38   24.40
   6   5   1  222.98   17.30
  -6   5  -1  144.19   40.20
   6   5   1  214.68   16.40
  -6   5  -1  232.08   22.40
  -7  -5  -1  177.08   39.40
  -7   5  -1  255.97   53.09
  -7   5  -1  204.38   24.80
  -8  -5  -1  372.76   59.09
  -8   5  -1  380.16   67.19
  -9  -5  -1    1.10   32.20
  -9   5  -1   23.30   54.49
  -9  -6   1   44.90   34.00
  -9   6   1   59.89   46.50
  -8  -6   1  -21.40   21.90
  -8   6   1    6.70   34.90
   8   6  -1   -5.30    7.30
   8   6  -1   -6.70    6.30
  -7   6   1  395.66   59.29
  -7   6   1  346.67   28.50
   7   6  -1  362.96   25.50
   7   6  -1  372.26   26.30
   6  -6  -1  108.49   22.00
  -6  -6   1  135.49   29.60
   6   6  -1  122.49   15.60
  -6   6   1  119.89   18.00
   6   6  -1   89.99   12.90
   6   6  -1  129.09   15.30
  -5  -6   1  555.64   37.00
   5  -6  -1  608.24   40.70
  -5  -6   1  651.33   47.30
   5   6  -1  559.74   32.80
  -5   6   1  602.84   35.90
   5   6  -1  578.84   33.50
   5   6  -1  547.25   33.30
   4  -6  -1 1182.48   64.69
  -4  -6   1 1289.77   71.19
   4  -6  -1 1142.89   61.89
  -4  -6   1 1024.00   63.49
   4   6  -1 1187.88   60.39
  -4   6   1 1183.88   62.19
   4   6  -1 1217.88   59.59
  -3  -6   1  127.29   19.60
   3  -6  -1  126.29   11.70
  -3  -6   1  116.59   19.40
   3   6  -1  119.89   18.70
   3   6  -1  116.59   10.20
  -3   6   1  124.59   16.50
   3   6  -1  104.89   10.20
  -3   6   1   98.09    6.80
  -2  -6   1 2537.45  129.29
   2  -6  -1 2788.12  132.39
   2  -6  -1 2588.04  122.79
  -2  -6   1 2503.25  129.19
   2   6  -1 2572.04  123.19
  -2   6   1 2547.95  121.19
   2   6  -1 2610.34  124.19
   2   6  -1 2601.24  127.69
  -1  -6   1  256.17   21.20
   1  -6  -1  306.77   19.20
  -1  -6   1  257.07   22.50
   1  -6  -1  288.67   24.10
   1  -6  -1  240.88   16.50
   1   6  -1  277.77   17.10
   1   6  -1  253.17   19.30
   1   6  -1  294.77   23.00
  -1   6   1  287.47   15.70
   1   6  -1  274.67   16.70
  -1   6   1  261.37   20.60
   0  -6   1 2274.37  109.69
   0  -6  -1 2304.27  111.39
   0  -6  -1 2247.38  111.99
   0  -6  -1 2385.26  117.99
   0  -6   1 2180.58  112.49
   0  -6   1 2232.28  117.09
   0  -6  -1 2304.77  110.39
   0   6   1 2258.47  109.89
   0   6  -1 2394.06  110.49
   0   6  -1 2455.25  111.39
   0   6  -1 2227.38  116.89
   0   6   1 2485.55  112.19
   1  -6   1 1681.33   82.49
   1  -6   1 1690.73   90.99
  -1  -6  -1 1752.22   85.19
   1  -6   1 1737.03   84.89
  -1  -6  -1 1824.32   90.89
  -1  -6  -1 1693.33   87.09
  -1  -6  -1 1713.43   83.69
  -1   6  -1 1694.83   86.19
  -1   6  -1 1788.32   82.89
   1   6   1 1804.52   84.09
   1   6   1 1696.93   85.69
  -1   6  -1 1694.53   82.39
   1   6   1 1775.12   83.59
  -1   6  -1 1600.04   92.89
  -2  -6  -1  147.59   19.90
  -2  -6  -1  123.59   11.90
   2  -6   1  157.48   22.30
   2  -6   1  119.09    9.50
   2  -6   1  170.58   29.50
  -2  -6  -1  161.58   20.30
  -2   6  -1  140.99   16.50
   2   6   1  135.69   10.70
   2   6   1  118.09   10.30
  -2   6  -1  121.69   17.80
  -2   6  -1  123.19    8.60
   2   6   1  135.79   17.70
  -2   6  -1  125.39    8.60
  -3  -6  -1  832.72   48.80
  -3  -6  -1  873.01   52.09
   3  -6   1  780.12   42.80
   3  -6   1  762.82   54.09
  -3  -6  -1  837.12   46.00
   3   6   1  821.52   43.40
   3   6   1  830.72   49.99
  -3   6  -1  833.82   50.49
   3   6   1  830.02   43.10
  -3   6  -1  933.71   45.90
   4  -6   1    2.10    6.20
  -4  -6  -1   14.00   12.10
  -4  -6  -1  -19.20    8.00
   4  -6   1    5.10   13.40
  -4  -6  -1    9.80    5.40
  -4   6  -1    1.40    8.20
   4   6   1   -1.60    3.40
  -4   6  -1    6.60    5.60
   4   6   1    0.00    3.90
  -5  -6  -1  170.78   26.30
  -5  -6  -1  208.68   17.90
   5  -6   1  213.18   30.50
   5  -6   1  194.98   18.20
  -5  -6  -1  171.78   30.50
   5   6   1  166.18   17.00
  -5   6  -1  185.18   23.60
   5   6   1  176.78   15.30
  -5   6  -1  180.88   16.50
  -6  -6  -1  104.69   28.10
  -6  -6  -1   95.59   15.10
   6   6   1  108.79   13.50
   6   6   1   98.59   12.50
  -6   6  -1   79.99   14.30
  -6   6  -1   76.39   17.40
  -7  -6  -1  -35.80   16.60
   7   6   1   -2.20    7.80
   7   6   1   -0.50    5.30
  -8  -6  -1   -1.40   23.30
   8   6   1   -1.30    5.80
   8   6   1   12.40    9.50
   8   6   1    1.80    8.00
  -9  -6  -1   18.90   33.50
   9   6   1   -6.50    8.90
  -8  -7   1   20.10   29.50
   8   7  -1   -0.20    9.90
   8   7  -1   -2.00   10.50
   8   7  -1   -0.30    7.90
  -7  -7   1  193.98   40.40
   7   7  -1  228.68   20.40
  -7   7   1  237.88   23.70
   7   7  -1  231.08   21.60
   7   7  -1  251.87   20.60
   6  -7  -1  113.39   23.70
  -6  -7   1  155.18   31.50
  -6  -7   1   76.89   16.70
   6   7  -1   82.39   14.80
   6   7  -1   84.89   12.90
   6   7  -1  105.59   15.00
  -6   7   1  112.29   17.70
  -5  -7   1   54.59   13.70
  -5  -7   1   83.69   22.60
   5   7  -1   86.09   12.80
   5   7  -1   78.59   11.70
  -5   7   1   87.09   14.70
   5   7  -1   79.29   11.00
  -4  -7   1  172.18   22.90
  -4  -7   1  179.48   28.60
   4   7  -1  147.59   13.70
  -4   7   1  161.58   19.90
   4   7  -1  160.48   14.00
  -3  -7   1    2.90    9.40
  -3  -7   1    2.40    9.90
   3  -7  -1    6.70    4.90
   3   7  -1   -3.50    3.80
   3   7  -1    1.40    3.70
  -3   7   1   -1.30    1.70
   3   7  -1    3.80    9.80
   2  -7  -1   -1.60    2.80
   2  -7  -1    3.80    3.90
  -2  -7   1    0.10    8.70
  -2   7   1    9.10    8.10
  -2   7   1   -0.80    3.20
   2   7  -1    0.60    3.60
   2   7  -1    4.70    4.60
   2   7  -1   -0.60    7.40
   1  -7  -1   25.10    6.20
  -1  -7   1   31.80   10.80
   1  -7  -1   39.90    6.80
   1   7  -1   70.39   15.20
  -1   7   1   31.70    5.10
  -1   7   1   42.90   11.40
   1   7  -1   39.30    6.80
   1   7  -1   41.10    8.80
   0  -7  -1  320.87   19.90
   0  -7   1  281.17   21.90
   0  -7  -1  278.47   18.10
   0  -7  -1  300.07   21.40
   0  -7   1  280.67   17.70
   0   7   1  323.47   21.10
   0   7  -1  289.97   17.80
   0   7  -1  307.47   18.30
   0   7  -1  309.57   19.90
   0   7   1  305.37   18.00
   0   7  -1  308.77   25.60
  -1  -7  -1  161.18   19.40
   1  -7   1  162.38   16.50
   1  -7   1  126.49   10.00
  -1  -7  -1  133.09   12.70
   1   7   1  145.89   14.40
  -1   7  -1  141.09   17.20
  -1   7  -1  134.09   10.30
  -1   7  -1  143.39   10.20
   1   7   1  133.89   11.90
   1   7   1  141.59   11.00
  -1   7  -1  171.78   23.40
  -2  -7  -1  500.55   33.10
   2  -7   1  433.66   24.40
  -2  -7  -1  459.05   29.80
  -2   7  -1  396.16   29.20
  -2   7  -1  411.16   32.30
   2   7   1  469.75   27.10
   2   7   1  441.76   25.60
  -2   7  -1  437.56   23.30
   2   7   1  411.76   32.30
  -2   7  -1  439.86   23.60
  -3  -7  -1  911.01   55.29
  -3  -7  -1  898.31   48.20
   3  -7   1  766.72   56.69
   3  -7   1  785.22   43.60
  -3   7  -1  835.72   41.50
   3   7   1  844.42   45.10
   3   7   1  829.22   44.80
  -3   7  -1  871.11   53.59
  -3   7  -1  944.01   48.40
   3   7   1  867.91   51.79
  -3   7  -1  882.31   42.30
  -4  -7  -1   15.70   12.30
  -4  -7  -1   -0.30   12.70
   4  -7   1   16.60   15.90
   4  -7   1   14.10    6.20
   4   7   1   13.30    5.40
   4   7   1    6.60    5.80
  -4   7  -1   12.50    7.00
  -4   7  -1    5.60   10.90
  -5  -7  -1  630.44   50.59
  -5  -7  -1  598.04   38.50
   5  -7   1  599.84   47.70
  -5  -7  -1  481.05   39.50
   5   7   1  614.84   35.40
  -5   7  -1  706.53   37.90
  -5   7  -1  600.64   43.80
   5   7   1  656.53   35.70
  -6  -7  -1   87.89   28.30
   6   7   1   81.09   12.20
  -6   7  -1   78.89   13.70
  -6   7  -1  115.39   22.70
   6   7   1   86.39   17.20
  -7  -7  -1  187.58   42.40
  -7   7  -1  212.68   21.50
   7   7   1  148.39   19.60
   7   7   1  195.08   17.90
   7   7   1  207.08   19.40
  -8  -7  -1  208.28   46.90
   8   7   1  307.87   24.90
  -8  -8   1  -17.60   24.40
  -8   8   1   -5.30   12.00
   8   8  -1    8.20    9.80
  -7  -8   1  189.08   41.20
  -7   8   1  283.27   26.40
   7   8  -1  246.48   22.30
   7   8  -1  278.37   24.30
   7   8  -1  275.47   22.90
  -6  -8   1   44.70   32.90
  -6   8   1   72.59   16.00
   6   8  -1   83.69   13.60
   6   8  -1   56.79   13.40
   6   8  -1   36.40   10.40
  -5  -8   1  305.17   41.90
  -5   8   1  357.66   27.40
   5   8  -1  341.67   24.40
   5   8  -1  367.76   25.10
   5   8  -1  356.56   24.30
  -4  -8   1  604.04   49.70
  -4   8   1  767.32   43.10
   4   8  -1  669.13   37.40
   4   8  -1  632.84   38.10
   4   8  -1  653.83   38.30
  -3  -8   1   91.39   20.50
  -3   8   1   87.69    8.10
   3   8  -1   94.09   12.50
   3   8  -1  107.19   12.60
  -3   8   1  110.29   17.90
  -3   8   1   97.99    7.60
   3   8  -1   90.59   17.70
  -2  -8   1 1723.83   97.79
   2   8  -1 1602.34   90.19
   2   8  -1 1788.42   86.59
   2   8  -1 1776.32   86.79
  -2   8   1 1769.82   83.79
   2   8  -1 1791.32   86.29
  -1  -8   1   97.09   17.80
   1  -8  -1  106.79   13.40
   1   8  -1  117.39   13.50
  -1   8   1  120.29   17.60
   1   8  -1  125.09   13.70
  -1   8   1  102.19    9.20
   1   8  -1  124.09   13.30
   0  -8   1 1709.43   82.99
   0  -8  -1 1527.35   81.19
   0  -8  -1 1511.75   80.19
   0   8  -1 1465.35   86.69
   0   8   1 1707.13   81.89
   0   8  -1 1590.04   78.19
   0   8  -1 1626.74   80.69
   0   8  -1 1560.14   77.99
   0   8   1 1584.94   77.89
   1  -8   1  781.42   43.00
  -1  -8  -1  744.23   45.30
  -1  -8  -1  755.02   42.50
   1  -8   1  686.13   43.90
  -1   8  -1  771.22   40.60
   1   8   1  764.42   39.90
  -1   8  -1  748.93   39.20
  -1   8  -1  737.03   44.30
  -1   8  -1  715.93   48.60
   1   8   1  761.12   41.50
  -2  -8  -1   69.09   11.90
   2  -8   1   80.39    9.60
  -2  -8  -1  105.89   19.70
   2  -8   1   98.29   13.40
   2   8   1  124.29   13.50
   2   8   1   84.79   15.60
  -2   8  -1   82.49   17.60
  -2   8  -1   95.39   20.00
  -2   8  -1   88.99    8.00
  -2   8  -1   95.79    8.50
   2   8   1   94.59   11.70
   3  -8   1  489.45   43.90
  -3  -8  -1  601.54   41.60
  -3  -8  -1  515.05   33.00
   3  -8   1  437.26   27.80
  -3   8  -1  521.25   27.00
  -3   8  -1  536.75   39.70
  -3   8  -1  507.75   26.10
   3   8   1  511.05   29.80
   3   8   1  489.85   29.90
  -3   8  -1  560.44   34.60
   4  -8   1   -4.00   15.10
  -4  -8  -1   -2.00    4.70
  -4  -8  -1    3.40   14.30
  -4   8  -1    7.90   12.20
   4   8   1    2.10    4.40
  -4   8  -1   -1.60    6.50
   4   8   1    4.20    6.30
  -5  -8  -1  121.49   18.40
   5  -8   1  151.38   27.90
  -5  -8  -1  116.19   28.50
  -5   8  -1  154.18   19.00
   5   8   1  112.09   14.40
  -5   8  -1  131.39   23.50
   6   8   1   43.30   10.00
  -6   8  -1   30.50   11.50
   6   8   1   44.70   10.30
  -7  -8  -1   26.10   28.20
   7   8   1   -8.90    7.50
  -7   8  -1    5.60   10.00
   7   8   1   -1.20    6.40
   7   8   1   -2.50    7.30
  -8  -8  -1    5.10   29.30
   8   8   1   -5.00    9.70
  -7  -9   1  160.98   40.70
  -7   9   1  156.68   23.60
   7   9  -1  132.69   18.00
  -6  -9   1   59.79   28.50
   6   9  -1   34.20    9.60
  -6   9   1   61.09   15.50
   6   9  -1   22.10    9.90
   6   9  -1   27.60    9.90
  -5  -9   1   57.79   23.10
   5   9  -1   25.20    8.00
  -5   9   1   49.50   14.10
   5   9  -1   35.70   10.20
  -4  -9   1   79.69   23.50
  -4   9   1   51.79    6.10
   4   9  -1   83.09   12.80
  -4   9   1   72.89   15.60
   4   9  -1   71.29   11.70
   4   9  -1   42.80   10.10
  -3  -9   1   18.70   15.20
  -3   9   1   -2.80    3.00
   3   9  -1   -2.80    4.10
   3   9  -1    1.40    6.10
  -3   9   1    0.00    2.80
   3   9  -1   -2.70    3.90
  -3   9   1    2.00    9.40
  -2  -9   1    2.40   11.90
  -2   9   1    2.80    3.20
   2   9  -1   12.50    5.40
   2   9  -1    7.30    6.30
  -2   9   1    9.40   10.20
   2   9  -1    2.90    4.50
  -1  -9   1    2.10   11.30
  -1   9   1    1.00    3.30
  -1   9   1    5.70    9.00
   1   9  -1   -3.80    3.30
   1   9  -1    1.10    5.30
   1   9  -1   -4.40    3.60
   0  -9  -1  142.09   16.80
   0  -9   1  173.98   22.30
   0   9  -1  163.38   18.70
   0   9   1  174.18   17.50
   0   9  -1  152.98   12.90
   0   9  -1  155.68   12.90
   0   9   1  166.18   12.90
   1  -9   1  122.19   18.20
  -1  -9  -1  133.69   20.20
  -1  -9  -1  105.99   14.40
  -1   9  -1  112.69   12.20
   1   9   1  142.09   16.60
  -1   9  -1  104.49   12.30
  -1   9  -1   98.29   17.50
   1   9   1  135.19   13.60
  -2  -9  -1  128.99   16.30
  -2  -9  -1  184.48   30.80
   2   9   1  160.08   13.80
  -2   9  -1  151.68   26.40
  -2   9  -1  150.58   11.50
  -2   9  -1  159.68   22.80
   2   9   1  151.58   21.10
  -2   9  -1  152.18   12.10
   2   9   1  167.88   15.40
  -3  -9  -1  592.14   37.60
  -3  -9  -1  581.94   44.70
  -3   9  -1  543.65   29.40
  -3   9  -1  564.54   44.10
   3   9   1  557.84   33.30
   3   9   1  531.65   33.40
  -3   9  -1  651.83   39.40
  -3   9  -1  570.44   30.50
  -4  -9  -1   22.30   17.50
  -4   9  -1    8.80    8.60
   4   9   1   12.20   10.20
   4   9   1    5.40    5.40
  -5  -9  -1  377.76   49.10
  -5   9  -1  434.06   30.00
   5   9   1  431.56   28.10
   5   9   1  369.56   26.70
  -6  -9  -1  126.59   34.20
   6   9   1  118.29   16.10
   6   9   1   79.99   12.80
   6   9   1   96.79   16.40
  -6   9  -1  124.19   18.50
  -7  -9  -1  121.39   39.90
  -7   9  -1  111.39   18.80
   7   9   1   98.29   15.00
  -6 -10   1   29.70   26.70
   6  10  -1   48.20   12.20
  -6  10   1   32.40   15.10
  -5  10   1  290.17   27.20
   5  10  -1  260.47   22.30
   5  10  -1  233.38   22.60
   5  10  -1  282.17   22.80
  -4 -10   1  511.95   47.60
   4  10  -1  471.75   31.30
   4  10  -1  506.55   31.60
   4  10  -1  429.26   31.50
  -4  10   1  518.35   37.50
  -4  10   1  489.45   25.60
  -4  10   1  470.75   26.40
  -3 -10   1  104.29   25.70
  -3  10   1   66.59    9.40
   3  10  -1   67.29   11.30
   3  10  -1  114.59   21.30
  -3  10   1   96.09   19.90
   3  10  -1  111.29   15.40
  -3  10   1   84.09    9.10
  -2 -10   1 1121.99   64.89
   2  10  -1 1043.90   54.69
  -2  10   1  811.62   59.59
  -2  10   1  984.00   50.39
   2  10  -1 1038.30   54.19
  -2  10   1  964.70   51.19
   2  10  -1 1038.30   53.79
  -1 -10   1  143.09   25.10
   1  10  -1  160.58   18.70
  -1  10   1  110.89   11.40
   1  10  -1  156.88   16.20
  -1  10   1  124.99   21.40
   1  10  -1  116.39   14.60
   0 -10   1 1015.00   56.89
   0  10   1  866.01   53.99
   0  10  -1  938.21   54.29
   0  10   1  941.11   48.80
   0  10  -1  910.81   48.80
   0  10  -1  897.01   49.10
  -1 -10  -1  727.73   47.20
   1 -10   1  742.83   44.00
  -1  10  -1  660.93   37.40
  -1  10  -1  589.34   43.80
   1  10   1  673.73   38.00
   1  10   1  731.53   42.10
  -1  10  -1  660.53   36.80
  -2 -10  -1   73.99   20.30
  -2  10  -1   89.49   18.70
   2  10   1   42.10   11.00
   2  10   1   76.99   11.60
  -2  10  -1   75.59   10.20
  -2  10  -1   69.49    8.80
  -3 -10  -1  499.15   45.40
   3  10   1  498.05   32.50
   3  10   1  561.74   34.10
  -3  10  -1  543.75   30.00
  -3  10  -1  525.55   28.60
  -3  10  -1  623.24   40.00
  -4 -10  -1    8.20   17.70
  -4  10  -1   22.30   11.10
   4  10   1   12.50   13.40
   4  10   1   11.20    7.70
  -5 -10  -1  144.59   58.59
   5  10   1  147.79   18.90
   5  10   1  117.89   18.10
   5  10   1  105.29   14.80
  -5  10  -1  138.29   19.80
  -6 -10  -1   38.20   29.30
   6  10   1   45.30   13.10
  -6  10  -1   43.20   14.40
  -5 -11   1   25.80   24.70
   5  11  -1   18.00   11.10
  -5  11   1   13.10   14.40
   5  11  -1   13.30   10.40
  -4 -11   1   38.10   23.30
  -4  11   1   45.10   15.60
   4  11  -1   45.40   11.20
  -4  11   1   59.69    7.40
   4  11  -1   33.90   10.60
   4  11  -1   29.90    9.60
  -4  11   1   52.59    8.00
  -3 -11   1   34.20   20.10
  -3  11   1   12.00    5.80
   3  11  -1   20.20    7.70
   3  11  -1   15.10    8.10
  -3  11   1    2.10   12.20
  -3  11   1   12.10    4.80
   3  11  -1    6.20    8.10
  -2 -11   1   -2.50   15.80
   2  11  -1   -5.10    5.00
   2  11  -1    1.70    5.60
  -2  11   1   -1.30    3.50
   2  11  -1   -6.80    6.90
  -2  11   1   -0.50    4.30
  -2  11   1    5.80   12.60
  -1 -11   1   38.50   17.80
   1  11  -1   47.40    9.00
   1  11  -1   28.20   11.20
  -1  11   1   31.70   13.60
   1  11  -1   43.50   10.10
  -1  11   1   45.00    8.50
  -1  11   1   34.90    7.20
   0 -11   1  101.59   29.00
   0  11   1   78.49   11.60
   0  11   1   73.99   10.30
   0  11   1   90.49   17.90
   0  11  -1  103.79   13.00
   0  11  -1   70.09   16.60
   0  11  -1   81.19   11.80
  -1  11  -1   20.10    8.00
  -1  11  -1   10.20    5.70
  -1  11  -1    1.90   12.20
   1  11   1   15.00    9.90
   1  11   1    6.10    5.60
  -2 -11  -1  143.99   27.30
  -2  11  -1  112.99   22.50
   2  11   1  113.79   17.50
   2  11   1  123.39   14.70
  -2  11  -1  105.49   11.80
  -2  11  -1  118.99   13.30
  -3 -11  -1  340.67   43.20
  -3  11  -1  362.76   31.70
   3  11   1  358.06   24.40
  -3  11  -1  296.47   20.80
   3  11   1  335.27   26.10
  -3  11  -1  304.07   19.40
  -4 -11  -1    4.80   20.30
  -4  11  -1   -3.70    3.20
   4  11   1    1.70    9.00
  -4  11  -1  -10.20    9.20
   4  11   1   -3.60    5.40
   4  11   1    0.20    7.00
  -5 -11  -1  250.17   45.10
   5  11   1  285.57   24.90
  -5  11  -1  294.27   27.50
  -4 -12   1  195.18   40.50
  -4  12   1  252.57   32.30
   4  12  -1  201.78   24.90
  -4  12   1  260.57   17.90
   4  12  -1  257.67   24.30
   4  12  -1  236.48   22.90
  -4  12   1  257.77   16.60
  -3 -12   1   24.10   22.50
   3  12  -1   45.80   12.60
  -3  12   1   46.40    9.10
  -3  12   1   40.40    7.40
  -3  12   1   57.99   19.70
   3  12  -1   69.59   15.20
   3  12  -1   38.20   10.60
  -2 -12   1  587.94   50.59
  -2  12   1  439.46   42.80
  -2  12   1  506.75   32.10
   2  12  -1  518.45   34.80
  -2  12   1  573.44   30.70
   2  12  -1  539.75   33.80
   2  12  -1  512.45   36.50
  -1 -12   1   59.09   21.90
  -1  12   1   49.30   10.10
   1  12  -1   56.39   11.10
  -1  12   1   46.60   19.40
  -1  12   1   51.99    9.30
   1  12  -1   71.89   12.20
   1  12  -1   70.59   16.60
   0 -12   1  496.95   42.00
   0  12   1  494.65   30.00
   0  12  -1  488.75   38.80
   0  12  -1  477.85   30.00
   0  12   1  496.85   39.60
   0  12   1  467.25   31.20
   0  12  -1  491.05   31.40
  -1 -12  -1  302.87   37.60
   1  12   1  348.97   24.80
   1  12   1  341.87   30.30
  -1  12  -1  340.17   23.30
  -1  12  -1  280.57   20.90
   1  12   1  307.37   22.60
  -2 -12  -1   52.49   23.30
   2  12   1   28.40   12.10
  -2  12  -1   43.30    8.00
  -2  12  -1   49.10    9.80
   2  12   1   37.70   12.20
  -2  12  -1   49.99   20.10
  -3 -12  -1  320.97   44.30
   3  12   1  281.27   24.40
  -3  12  -1  264.57   33.40
   3  12   1  272.47   24.90
  -3  12  -1  263.47   17.60
  -3  12  -1  282.77   19.80
   3  12   1  239.18   21.80
 -10   0   2   13.70   32.70
  -9   0   2  178.58   42.50
  -8   0   2  202.88   40.50
  -7   0   2  559.04   48.50
   6   0  -2 1381.26   67.09
   6   0  -2 1340.77   66.99
  -6   0   2 1436.96   83.19
   5   0  -2  110.59   15.20
   5   0  -2  101.09    7.90
  -5   0   2  119.49   21.00
   5   0  -2   97.09    8.00
   5   0  -2  129.19   19.80
   4   0  -2 5260.27  243.98
   4   0  -2 5071.19  243.38
  -4   0   2 5279.37  251.57
   4   0  -2 5323.47  247.68
   4   0  -2 5326.77  250.37
   3   0  -2  138.79   14.10
  -3   0   2  173.48   15.70
   3   0  -2  173.08   12.60
  -3   0   2  177.78    9.50
   3   0  -2  167.78    9.70
  -2   0   2 6743.13  320.37
   2   0  -2 7070.79  321.67
   2   0  -2 6840.52  319.37
   1   0  -2 5929.61  275.37
  -1   0   2 6150.98  275.27
   1   0  -2 5862.31  277.07
  -1   0   2 5999.90  277.07
  -1   0   2 5817.52  275.37
   0   0   2 1312.17   69.39
   0   0  -2 1327.57   65.69
   0   0  -2 1462.45   71.79
   0   0   2 1467.35   66.49
   0   0   2 1476.65   65.89
   1   0   2 4592.74  207.88
  -1   0  -2 4547.84  212.68
  -1   0  -2 4365.06  217.68
   1   0   2 4547.15  213.08
   1   0   2 4463.75  213.98
  -2   0  -2  410.26   28.80
  -2   0  -2  404.66   24.30
  -2   0  -2  382.06   19.10
   2   0   2  351.96   25.70
   2   0   2  367.96   27.00
   2   0   2  407.36   19.10
   3   0   2  277.97   24.00
  -3   0  -2  308.27   26.80
  -3   0  -2  271.77   14.80
   3   0   2  285.17   14.50
  -4   0  -2  328.47   18.10
  -4   0  -2  362.86   32.00
   4   0   2  311.07   28.10
   4   0   2  344.97   17.50
   5   0   2    2.50   10.90
   5   0   2   -1.90    1.80
  -5   0  -2    0.30    2.80
  -5   0  -2   -4.00   14.10
   6   0   2   78.99   13.80
  -6   0  -2   74.19    9.20
  -6   0  -2   49.50   23.70
  -7   0  -2   44.00   25.00
  -8   0  -2   10.70   23.80
  -9   0  -2    2.30   31.80
 -10   0  -2   15.80   40.10
 -10  -1   2  -19.30   32.40
 -10   1   2    0.00   33.40
  -9  -1   2  278.47   46.50
  -9   1   2  281.97   54.99
  -8  -1   2    3.50   22.60
  -8   1   2   23.60   24.90
  -7  -1   2   77.49   25.70
  -7   1   2   93.89   25.70
   6  -1  -2  134.09   24.30
  -6  -1   2  125.49   26.00
  -6   1   2  159.18   26.80
   6   1  -2  144.19   11.50
   6   1  -2  136.39   11.20
   5  -1  -2   13.20    6.90
   5  -1  -2   14.70    3.30
   5  -1  -2   -7.90    7.70
  -5  -1   2    0.20    8.60
   5  -1  -2   19.80    3.60
   5   1  -2   38.70    6.00
   5   1  -2   43.50   13.10
  -5   1   2   70.29   16.80
  -4  -1   2   44.30   12.80
   4  -1  -2   48.00   11.70
   4  -1  -2   38.00    4.80
   4  -1  -2   44.20    8.60
   4  -1  -2   42.70    4.20
   4   1  -2   36.10   11.10
   4   1  -2   54.29    6.70
  -4   1   2   31.00   11.60
   4   1  -2   40.10    6.00
   3  -1  -2   21.30    5.30
   3  -1  -2   21.50    7.30
  -3  -1   2   19.00    7.60
  -3   1   2   -0.90    5.70
  -3   1   2    8.10    3.90
   3   1  -2    5.20    2.20
  -3   1   2    4.60    1.40
   3   1  -2    3.60    2.00
   3   1  -2   10.60    6.40
   2  -1  -2  985.70   49.10
  -2  -1   2 1050.69   51.09
   2  -1  -2 1085.99   49.10
  -2  -1   2 1009.90   47.20
   2  -1  -2 1015.60   46.80
  -2   1   2  985.10   49.60
   2   1  -2  962.50   47.30
  -2   1   2  928.71   46.50
   2   1  -2  888.61   50.09
  -2   1   2  985.80   48.80
   1  -1  -2  167.88    8.50
  -1  -1   2  162.18   11.00
  -1  -1   2  161.18   10.80
   1  -1  -2  171.98   10.30
  -1  -1   2  163.88    8.90
   1   1  -2  159.78    9.00
  -1   1   2  167.98    8.70
   1   1  -2  151.08   10.60
   1   1  -2  165.38   10.40
  -1   1   2  159.48   10.00
   0  -1  -2  528.35   24.20
   0  -1   2  484.05   23.70
   0  -1   2  479.55   26.30
   0  -1  -2  497.95   23.40
   0  -1  -2  487.55   26.80
   0   1   2  509.35   24.30
   0   1   2  448.36   26.10
   0   1  -2  486.95   23.70
   0   1   2  483.95   23.40
   1  -1   2 3492.75  164.58
   1  -1   2 3462.45  170.08
  -1  -1  -2 3359.16  161.18
   1  -1   2 3640.94  161.18
   1   1   2 3381.96  161.48
  -1   1  -2 3463.25  161.08
  -1   1  -2 3398.46  164.08
   1   1   2 3501.55  161.08
   1   1   2 3657.03  165.68
  -2  -1  -2  102.19   14.10
  -2  -1  -2   59.69    5.30
  -2  -1  -2   73.89   14.20
   2  -1   2   83.69   15.50
   2  -1   2   62.89    4.50
  -2   1  -2   87.29    4.50
   2   1   2  125.49   15.90
   2   1   2   95.79    5.50
  -2   1  -2   91.29    9.80
  -2   1  -2   89.69   18.10
  -3  -1  -2 4440.36  211.48
  -3  -1  -2 4256.77  201.08
   3  -1   2 4127.79  205.58
   3  -1   2 4325.87  199.48
   3  -1   2 4342.87  202.48
   3  -1   2 4387.26  210.48
  -3   1  -2 4132.89  203.48
  -3   1  -2 4411.06  199.68
  -3   1  -2 4318.57  213.88
   3   1   2 4455.55  209.48
   3   1   2 4372.96  200.58
   4  -1   2  327.47   28.40
   4  -1   2  298.67   15.50
   4  -1   2  311.57   19.90
  -4  -1  -2  285.47   17.40
  -4  -1  -2  309.27   29.90
  -4   1  -2  343.57   39.60
  -4   1  -2  329.77   16.30
   4   1   2  303.27   16.70
   5  -1   2  642.44   45.70
   5  -1   2  640.24   36.40
   5  -1   2  653.53   30.60
  -5  -1  -2  632.34   33.40
  -5  -1  -2  633.64   48.80
  -5   1  -2  636.14   57.99
   5   1   2  627.64   31.80
  -5   1  -2  571.94   31.50
  -6  -1  -2  948.41   51.09
  -6  -1  -2  922.11   64.39
   6  -1   2  799.02   47.70
  -6   1  -2  778.62   63.99
   6   1   2  801.02   41.80
  -7  -1  -2   61.59   27.30
  -7   1  -2   47.30   26.60
  -8  -1  -2  462.75   69.59
  -8   1  -2  505.65   67.39
  -9  -1  -2  132.09   43.20
  -9   1  -2   88.39   43.00
 -10  -1  -2  102.69   46.00
 -10   1  -2  120.29   54.99
 -10  -2   2  -18.70   29.80
 -10   2   2   13.40   35.20
  -9  -2   2  175.58   42.60
  -9   2   2  138.49   40.30
  -8  -2   2   51.79   28.30
  -8   2   2   97.49   32.30
  -7  -2   2  433.76   43.80
   7   2  -2  458.35   27.20
  -7   2   2  490.95   46.40
   7   2  -2  451.35   27.00
   6  -2  -2  709.13   49.30
  -6  -2   2  751.52   53.59
   6   2  -2  741.93   39.80
   6   2  -2  781.52   39.90
  -6   2   2  738.23   60.19
   5  -2  -2  112.99   18.20
   5  -2  -2  111.29   13.80
   5   2  -2   84.99    9.80
   5   2  -2   91.59   18.60
  -5   2   2   69.79   17.60
   5   2  -2   87.89   10.80
   4  -2  -2 2538.65  121.29
   4  -2  -2 2532.85  122.29
   4  -2  -2 2509.95  124.49
  -4  -2   2 2628.44  127.89
   4   2  -2 2686.53  119.89
  -4   2   2 2393.66  121.89
   4   2  -2 2588.14  120.29
  -4   2   2 2437.46  126.79
   4   2  -2 2394.06  125.69
   3  -2  -2  332.77   22.80
  -3  -2   2  392.36   26.00
   3  -2  -2  348.17   21.80
   3  -2  -2  343.47   21.70
   3   2  -2  338.47   24.60
   3   2  -2  402.16   21.10
  -3   2   2  402.86   25.60
   3   2  -2  409.16   20.40
  -3   2   2  384.06   22.10
   2  -2  -2  768.62   39.20
  -2  -2   2  830.92   42.50
  -2  -2   2  822.62   39.90
   2  -2  -2  770.12   40.80
   2  -2  -2  856.11   37.00
   2  -2  -2  848.92   40.60
  -2   2   2  702.23   40.10
  -2   2   2  722.23   37.40
  -2   2   2  824.12   40.30
   2   2  -2  794.82   39.30
   2   2  -2  762.02   41.90
   2   2  -2  761.92   39.30
   2   2  -2  767.12   38.50
   1  -2  -2 3884.91  192.68
  -1  -2   2 4143.99  193.38
  -1  -2   2 4054.69  191.18
   1  -2  -2 4171.38  190.38
  -1  -2   2 4160.48  193.68
  -1   2   2 3863.81  192.98
   1   2  -2 4480.45  193.78
   1   2  -2 4253.77  193.18
   0  -2  -2  412.36   20.90
   0  -2   2  416.56   20.30
   0  -2   2  384.66   23.30
   0  -2  -2  393.46   20.10
   0   2  -2  427.66   20.40
   0   2  -2  399.16   23.10
   0   2   2  395.46   20.00
   0   2   2  423.46   21.20
   1  -2   2 3007.50  135.59
  -1  -2  -2 2854.61  136.29
   1  -2   2 2930.21  139.99
  -1  -2  -2 2969.10  140.29
  -1   2  -2 2992.20  135.69
  -1   2  -2 2900.21  139.39
   1   2   2 2822.22  136.09
   1   2   2 2947.21  136.19
  -2  -2  -2   47.00   11.10
   2  -2   2   67.69   15.60
   2  -2   2   42.10    8.60
   2   2   2   67.99    5.30
  -2   2  -2   99.29   10.90
  -2   2  -2  118.09   21.80
   2   2   2   91.59   13.40
   2   2   2   72.49    5.60
   3  -2   2  172.78   15.70
   3  -2   2  201.08   25.30
   3  -2   2  172.28   11.60
  -3  -2  -2  188.88   23.10
  -3  -2  -2  180.58   11.30
   3   2   2  162.48   21.30
  -3   2  -2  127.79   14.60
  -3   2  -2  172.78   27.70
  -4  -2  -2  112.69    9.70
   4  -2   2  140.09   22.50
   4  -2   2  117.89   11.20
  -4  -2  -2  127.09   22.80
   4  -2   2  113.69   16.30
   4   2   2  195.98   24.50
  -4   2  -2  135.89   13.00
   4   2   2  142.29    9.30
  -4   2  -2  175.08   30.10
   5  -2   2    6.40    9.30
   5  -2   2    0.30   11.50
  -5  -2  -2    2.30    3.90
   5  -2   2    1.20    5.20
  -5  -2  -2    3.00   11.80
  -5   2  -2   15.90    6.40
   5   2   2    5.50    2.90
  -5   2  -2    7.40   15.40
  -6  -2  -2   33.90    7.50
  -6  -2  -2   56.29   22.80
   6  -2   2   38.60   10.70
   6   2   2   32.40    6.20
  -6   2  -2   24.60   21.50
  -7  -2  -2   24.00   22.40
  -7   2  -2   15.70   24.70
  -8  -2  -2   54.69   32.90
  -8   2  -2   77.09   35.90
  -9  -2  -2    2.00   30.20
  -9   2  -2    7.30   34.10
 -10  -2  -2   51.59   43.80
 -10   2  -2   63.29   49.40
 -10  -3   2    5.30   34.00
 -10   3   2   20.40   38.10
  -9  -3   2  100.69   33.70
  -9   3   2  104.49   36.20
  -8  -3   2   13.70   23.70
  -8   3   2   16.20   26.50
  -7  -3   2   31.20   18.20
  -7   3   2   44.40   23.80
   7   3  -2   28.50    7.30
   7   3  -2   35.50    8.60
   6  -3  -2   90.39   19.20
  -6  -3   2  106.59   23.70
   6   3  -2   89.19   10.50
  -6   3   2   62.79   21.00
   6   3  -2   82.59   10.70
   5  -3  -2   12.90   10.30
  -5  -3   2   25.30   12.60
   5  -3  -2   40.10    9.50
   5  -3  -2   21.10    8.90
  -5   3   2   20.40   14.00
   5   3  -2   38.40    7.00
   5   3  -2   25.10    5.90
  -5   3   2   41.90   10.00
  -4  -3   2   20.60    9.60
   4  -3  -2   23.90    9.00
   4  -3  -2   18.90    6.40
   4  -3  -2   12.10    6.80
  -4   3   2   18.70    6.40
   4   3  -2   18.80    5.20
   4   3  -2   23.00    4.50
   4   3  -2   25.70   10.00
  -4   3   2    9.00   10.50
   3  -3  -2   32.60    7.70
   3  -3  -2   50.39    8.60
  -3  -3   2   31.70    9.80
   3  -3  -2   43.60    8.20
  -3   3   2   19.00   10.20
   3   3  -2   23.20    4.40
   3   3  -2   29.30    5.50
   3   3  -2   27.60    8.90
  -3   3   2   26.60    6.20
   2  -3  -2  174.48   14.30
   2  -3  -2  204.18   15.90
  -2  -3   2  180.28   14.40
   2  -3  -2  193.58   10.80
  -2  -3   2  200.68   16.80
  -2   3   2  267.47   15.60
   2   3  -2  261.07   15.30
   2   3  -2  249.08   16.90
  -1  -3   2  182.68   13.30
   1  -3  -2  182.08    9.00
  -1  -3   2  147.09   12.30
   1  -3  -2  160.18   11.00
   1  -3  -2  178.88   13.80
   1   3  -2  145.59   10.10
   1   3  -2  134.99   11.60
  -1   3   2  146.59    8.40
   1   3  -2  152.98    9.50
   1   3  -2  145.59    9.00
   1   3  -2  141.89   12.20
  -1   3   2  145.69   12.00
   0  -3  -2  651.83   31.50
   0  -3   2  612.54   34.80
   0  -3  -2  610.54   30.90
   0   3   2  682.43   32.10
   0   3  -2  623.84   30.40
   0   3   2  614.94   30.60
   0   3  -2  585.14   34.30
   1  -3   2 1223.68   68.09
  -1  -3  -2 1234.98   67.29
  -1  -3  -2 1300.17   64.59
  -1  -3  -2 1295.17   64.29
  -1   3  -2 1488.35   63.59
   1   3   2 1375.66   64.29
   1   3   2 1374.26   67.09
  -1   3  -2 1368.66   68.19
   1   3   2 1420.16   64.29
   2  -3   2    0.40    5.20
  -2  -3  -2    0.80    5.80
   2  -3   2   11.30   12.10
   2   3   2    8.90    2.90
  -2   3  -2    9.10    5.00
   2   3   2   10.90    2.80
   2   3   2    7.90    6.40
   3  -3   2 2551.04  130.39
  -3  -3  -2 2510.45  128.39
   3  -3   2 2446.46  124.79
  -3  -3  -2 2532.65  120.29
  -3   3  -2 2560.14  123.59
  -3   3  -2 2530.65  119.69
   3   3   2 2604.34  119.39
   3   3   2 2448.56  119.29
   3   3   2 2578.54  126.89
  -3   3  -2 2500.05  135.99
   4  -3   2 1087.69   60.69
  -4  -3  -2 1086.59   54.99
   4  -3   2 1029.10   64.79
  -4  -3  -2 1049.00   65.19
   4  -3   2 1072.89   55.09
  -4   3  -2 1109.69   73.09
  -4   3  -2 1047.90   57.79
   4   3   2 1132.19   63.89
   4   3   2 1141.39   53.89
  -5  -3  -2  455.75   26.70
   5  -3   2  466.05   33.50
   5  -3   2  448.06   27.40
   5  -3   2  402.06   37.30
  -5  -3  -2  444.36   40.20
  -5   3  -2  476.55   46.90
  -5   3  -2  386.26   28.20
   5   3   2  463.45   24.80
  -6  -3  -2  825.12   61.49
   6  -3   2  804.22   45.90
   6  -3   2  747.53   52.49
  -6  -3  -2  849.81   44.80
  -6   3  -2  759.22   67.09
  -6   3  -2  768.22   46.10
   6   3   2  827.92   42.10
  -7  -3  -2   17.30    7.40
  -7  -3  -2    1.90   21.60
   7   3   2   12.60    8.90
  -7   3  -2   56.79   31.80
  -8  -3  -2  518.15   69.59
  -8   3  -2  584.44   75.49
  -9  -3  -2   69.39   40.20
  -9   3  -2   11.40   35.00
 -10  -3  -2  104.49   48.80
 -10   3  -2  102.39   52.49
 -10  -4   2   18.30   31.90
 -10   4   2  -16.60   36.60
  -9  -4   2  171.58   42.00
  -9   4   2  202.38   49.10
  -8  -4   2   20.80   24.10
  -8   4   2   10.00   27.90
   7  -4  -2  533.25   43.50
  -7  -4   2  607.14   51.89
  -7   4   2  644.94   57.69
   7   4  -2  601.54   42.50
   6  -4  -2  596.04   39.90
   6  -4  -2  585.84   42.70
  -6  -4   2  592.24   47.70
  -6   4   2  605.44   37.30
  -6   4   2  625.34   52.19
   6   4  -2  590.34   34.30
   6   4  -2  622.44   34.70
   5  -4  -2  186.28   17.60
   5  -4  -2  208.98   22.80
   5  -4  -2  199.18   23.80
  -5  -4   2  251.87   31.90
  -5   4   2  173.88   28.60
  -5   4   2  197.78   16.60
   5   4  -2  180.18   14.10
   5   4  -2  150.68   13.80
   4  -4  -2 2076.89  102.29
   4  -4  -2 1941.91  101.99
   4  -4  -2 1985.40  103.39
  -4  -4   2 2093.49  107.69
   4   4  -2 2115.69   99.69
   4   4  -2 1951.60  105.69
  -4   4   2 1967.90  108.49
   4   4  -2 2167.98   99.29
  -4   4   2 2110.29  101.39
   3  -4  -2  160.08   15.60
  -3  -4   2  137.79   13.50
  -3  -4   2  208.48   22.70
   3  -4  -2  153.18   13.80
   3   4  -2  126.29   11.00
   3   4  -2  152.38   13.50
   3   4  -2  128.69   10.30
  -3   4   2  147.39   13.10
   3   4  -2  180.08   20.30
   2  -4  -2 1521.75   76.29
   2  -4  -2 1518.95   72.79
  -2  -4   2 1555.94   77.79
  -2  -4   2 1508.35   78.79
   2  -4  -2 1634.14   79.69
  -2   4   2 1424.86   77.09
   2   4  -2 1597.64   74.49
  -2   4   2 1529.25   72.29
   2   4  -2 1590.54   77.79
   2   4  -2 1612.14   75.49
   2   4  -2 1505.25   77.99
   1  -4  -2 2460.45  116.19
  -1  -4   2 2419.36  120.89
   1  -4  -2 2498.75  117.59
   1  -4  -2 2466.05  122.09
  -1  -4   2 2351.76  119.59
  -1   4   2 2567.24  120.09
   1   4  -2 2461.85  120.79
   1   4  -2 2439.56  119.09
  -1   4   2 2527.55  115.69
   1   4  -2 2407.66  116.09
   1   4  -2 2509.45  116.79
   1   4  -2 2611.34  117.79
   0  -4  -2  968.70   54.09
   0  -4   2  935.91   53.79
   0  -4  -2 1042.60   49.60
   0  -4   2  999.00   51.19
   0  -4   2  982.30   48.40
   0   4  -2  989.60   48.90
   0   4  -2 1038.70   48.90
   0   4   2 1045.70   50.39
   0   4  -2  947.91   53.39
   0   4   2 1045.50   48.90
   0   4  -2 1069.59   49.80
  -1  -4  -2 4383.56  199.58
   1  -4   2 4133.79  199.98
  -1  -4  -2 4360.16  194.78
  -1  -4  -2 4239.38  197.78
   1  -4   2 4201.88  193.38
  -1  -4  -2 4254.47  195.18
   1   4   2 4071.09  196.68
  -1   4  -2 4069.49  199.38
   1   4   2 3924.71  194.38
   1   4   2 4040.70  194.28
  -1   4  -2 4149.18  193.58
  -1   4  -2 4219.38  194.08
   2  -4   2  184.68   19.70
  -2  -4  -2  204.68   21.90
   2  -4   2  238.88   31.20
  -2   4  -2  159.58    9.10
  -2   4  -2  173.98   15.70
  -2   4  -2  147.89    9.10
   2   4   2  172.98   18.90
   2   4   2  144.99   10.40
   2   4   2  154.48   10.50
  -3  -4  -2  802.52   52.69
   3  -4   2  872.01   51.59
   3  -4   2  866.81   56.79
  -3  -4  -2  886.61   46.10
   3   4   2  896.01   52.09
   3   4   2  971.80   45.10
  -3   4  -2  877.61   49.99
   3   4   2  902.31   44.90
   4  -4   2   86.79   11.40
  -4  -4  -2   65.69    9.10
   4  -4   2  103.09   21.30
   4  -4   2  108.19   17.70
  -4   4  -2   90.89    9.60
   4   4   2   97.39   19.00
   4   4   2  100.39    9.10
   4   4   2   85.09    8.10
  -4   4  -2   92.59   14.40
  -5  -4  -2   51.59   10.00
   5  -4   2   33.10   14.20
   5  -4   2   44.80   17.90
   5  -4   2   54.29   10.50
  -5  -4  -2   32.90   18.20
  -5   4  -2   51.39   25.80
  -5   4  -2   62.99   12.40
   5   4   2   52.19    7.90
   6  -4   2   39.30   10.00
  -6  -4  -2   40.50   21.10
  -6  -4  -2   27.00    8.70
   6  -4   2   49.20   18.70
   6   4   2   25.20    6.20
  -6   4  -2   20.80   10.20
  -6   4  -2   19.50   25.10
  -7  -4  -2   18.00   21.90
   7  -4   2    4.40   18.80
  -7  -4  -2    9.00    7.50
  -7   4  -2    8.20    9.70
  -7   4  -2   23.60   31.10
   7   4   2   -1.40    4.00
  -8  -4  -2   26.10   28.10
  -8   4  -2   42.40   36.10
  -9  -4  -2   -7.90   29.30
  -9   4  -2   37.70   44.90
  -9  -5   2   83.99   35.90
  -9   5   2  130.89   45.30
  -8  -5   2   26.70   24.60
   8  -5  -2   38.30   32.90
   8   5  -2   42.70   10.40
  -8   5   2   24.90   29.00
   8   5  -2   34.80   11.20
  -7  -5   2   51.19   22.60
   7  -5  -2   16.10   17.50
   7   5  -2   50.49   10.40
  -7   5   2   43.70   13.50
  -7   5   2   80.79   29.80
   7   5  -2   48.40   10.20
  -6  -5   2   65.59   20.50
   6  -5  -2   62.39   17.10
   6  -5  -2   41.50   15.90
  -6   5   2   60.09   12.90
   6   5  -2   41.50    9.10
   6   5  -2   55.19    9.90
  -6   5   2   19.80   21.90
  -5  -5   2   -2.20   11.20
   5  -5  -2    9.80   11.70
   5  -5  -2   21.10   11.00
   5  -5  -2   15.20    9.40
   5   5  -2    7.70    4.60
   5   5  -2   10.50    5.30
  -5   5   2   10.80    7.10
  -5   5   2   -4.90   15.90
   4  -5  -2   25.30   10.20
   4  -5  -2   31.80    9.10
  -4  -5   2   25.90   12.60
  -4  -5   2   19.60    8.10
   4   5  -2   22.50    6.00
  -4   5   2   30.30    8.40
   4   5  -2   31.40    6.40
   3  -5  -2    2.10    7.40
   3  -5  -2    0.50    5.20
  -3  -5   2   15.40   10.40
  -3  -5   2    0.20    5.80
   3   5  -2    0.70    3.50
   3   5  -2    0.20    6.50
  -3   5   2   -1.90    4.10
  -3   5   2    0.70    1.40
   3   5  -2   -1.30    2.80
  -2  -5   2  355.16   25.00
  -2  -5   2  405.86   26.80
   2  -5  -2  397.96   22.40
   2  -5  -2  359.76   19.40
  -2   5   2  306.37   23.90
   2   5  -2  351.76   20.60
   2   5  -2  368.66   20.30
   2   5  -2  353.86   24.90
   2   5  -2  366.06   24.90
  -2   5   2  363.16   18.60
   2   5  -2  383.26   21.70
  -1  -5   2  211.78   18.10
   1  -5  -2  216.48   13.50
  -1  -5   2  178.58   16.20
   1  -5  -2  204.28   18.40
   1  -5  -2  216.08   12.60
   1   5  -2  193.18   12.30
  -1   5   2  228.68   16.80
  -1   5   2  187.58   11.40
   1   5  -2  203.68   17.40
   1   5  -2  193.78   13.30
   1   5  -2  183.58   12.40
   0  -5   2  232.18   13.40
   0  -5  -2  247.98   14.70
   0  -5   2  230.98   19.80
   0  -5  -2  214.38   19.30
   0  -5   2  220.08   16.60
   0  -5  -2  224.78   14.30
   0   5   2  234.88   13.70
   0   5  -2  245.98   19.40
   0   5  -2  238.58   13.80
   0   5   2  255.87   15.90
   0   5  -2  225.58   14.10
   0   5  -2  225.88   14.30
   1  -5   2 1340.57   73.09
  -1  -5  -2 1262.67   61.19
  -1  -5  -2 1198.18   64.09
  -1  -5  -2 1291.47   61.79
  -1  -5  -2 1240.58   66.69
   1  -5   2 1204.28   59.49
   1   5   2 1211.38   63.19
  -1   5  -2 1150.08   61.99
  -1   5  -2 1193.58   66.29
  -1   5  -2 1254.87   60.29
   1   5   2 1286.57   60.79
  -1   5  -2 1253.37   59.79
   1   5   2 1306.77   61.29
   2  -5   2   14.90    3.70
  -2  -5  -2   18.10    5.20
   2  -5   2   46.20   18.70
  -2  -5  -2    9.80    8.30
   2  -5   2   19.30    9.00
  -2  -5  -2    5.60    6.70
   2   5   2   18.00    8.10
  -2   5  -2   14.60    3.20
  -2   5  -2   15.40    7.60
   2   5   2   15.60    4.10
   2   5   2   18.10    4.60
  -2   5  -2   13.10    5.70
  -2   5  -2   11.80    3.00
   3  -5   2 2216.28  120.29
  -3  -5  -2 2071.89  114.59
  -3  -5  -2 2212.48  111.39
   3  -5   2 2224.48  106.39
  -3  -5  -2 2271.17  108.39
   3  -5   2 2229.58  114.69
   3   5   2 2231.18  116.59
   3   5   2 2285.27  106.69
   3   5   2 2236.08  106.29
  -3   5  -2 2205.48  112.79
   4  -5   2  716.13   47.40
  -4  -5  -2  756.22   49.40
  -4  -5  -2  678.33   40.70
  -4  -5  -2  765.52   39.60
   4  -5   2  677.43   38.20
   4  -5   2  674.23   49.50
  -4   5  -2  620.14   45.10
   4   5   2  688.93   36.90
   4   5   2  677.43   36.70
   5  -5   2  445.76   41.90
  -5  -5  -2  451.75   43.10
  -5  -5  -2  498.15   31.00
   5  -5   2  512.25   31.20
   5  -5   2  451.65   39.40
  -5   5  -2  485.95   29.50
  -5   5  -2  498.15   34.40
   5   5   2  498.95   28.30
   5   5   2  522.25   29.00
   6  -5   2  647.84   40.30
  -6  -5  -2  677.43   56.39
  -6  -5  -2  719.23   40.50
  -6   5  -2  552.94   42.50
   6   5   2  650.03   36.30
  -6   5  -2  677.33   68.09
   6   5   2  679.53   37.20
  -7  -5  -2   11.90    7.60
  -7  -5  -2  -29.50   20.90
   7   5   2   11.60    6.20
  -7   5  -2   11.30   11.40
   7   5   2    7.70    7.50
  -7   5  -2   33.10   35.90
  -8  -5  -2  416.76   64.99
   8   5   2  425.76   29.10
  -8   5  -2  377.46   68.59
  -8   5  -2  404.16   34.70
  -9  -5  -2   69.29   39.60
  -9   5  -2   33.60   46.50
   9   5   2   39.80   11.70
  -9  -6   2  122.59   38.80
  -9   6   2  100.69   47.40
  -8  -6   2   54.69   29.70
   8   6  -2   58.89   13.60
   8   6  -2   54.59   12.70
  -8   6   2   58.79   39.10
   7   6  -2  318.17   23.60
  -7   6   2  369.16   57.09
  -7   6   2  295.37   26.50
   7   6  -2  302.67   23.80
  -6  -6   2  725.83   55.79
   6  -6  -2  586.14   54.59
   6   6  -2  660.43   40.00
   6   6  -2  694.83   40.40
  -6   6   2  778.92   43.70
  -5  -6   2  115.89   25.30
  -5  -6   2   77.79   15.00
   5  -6  -2  127.39   18.70
   5   6  -2  135.99   15.20
   5   6  -2  113.19   14.10
  -5   6   2  117.69   16.70
   4  -6  -2 1815.52   92.89
  -4  -6   2 1838.52   99.89
  -4  -6   2 1686.83   94.89
   4   6  -2 1887.11   90.99
   4   6  -2 1860.51   89.59
   4   6  -2 1814.12   90.29
  -4   6   2 1908.51   98.99
   3  -6  -2   99.49    8.10
   3  -6  -2  119.79   14.10
  -3  -6   2  110.89   19.40
  -3  -6   2  118.89   19.20
   3   6  -2  147.19   19.80
   3   6  -2  120.59   10.40
  -3   6   2  104.79    6.90
   3   6  -2  108.19   11.40
   3   6  -2  107.89   10.00
  -3   6   2  131.39   17.20
   2  -6  -2 1615.44   79.19
   2  -6  -2 1599.94   86.39
  -2  -6   2 1639.64   84.39
  -2  -6   2 1486.95   83.89
  -2   6   2 1619.44   76.29
   2   6  -2 1650.23   79.49
   2   6  -2 1605.44   77.89
   2   6  -2 1662.83   78.79
   2   6  -2 1513.15   82.59
   2   6  -2 1661.53   84.79
   1  -6  -2 1799.82   93.29
   1  -6  -2 1762.02   85.39
  -1  -6   2 1706.93   89.49
  -1  -6   2 1710.23   91.99
   1  -6  -2 1693.13   85.49
  -1   6   2 1826.92   89.79
  -1   6   2 1786.52   84.09
   1   6  -2 1766.82   84.89
   1   6  -2 1790.32   92.19
   1   6  -2 1854.41   86.19
   1   6  -2 1732.73   85.19
   0  -6   2  759.82   45.60
   0  -6  -2  758.92   45.50
   0  -6   2  705.23   40.70
   0  -6  -2  704.63   38.00
   0  -6   2  717.23   37.10
   0  -6  -2  711.23   38.60
   0   6  -2  732.73   37.50
   0   6  -2  802.52   45.10
   0   6  -2  745.83   38.40
   0   6   2  766.22   37.60
   0   6  -2  719.43   38.00
   0   6   2  768.52   40.10
   1  -6   2 2019.10   96.29
   1  -6   2 1934.71   92.59
  -1  -6  -2 2047.00   95.59
   1  -6   2 1971.30  102.39
  -1  -6  -2 2011.10  101.39
  -1  -6  -2 2012.10   94.49
  -1  -6  -2 1883.91   97.59
   1   6   2 1938.41   93.79
  -1   6  -2 1957.70   93.29
  -1   6  -2 1944.31   92.99
  -1   6  -2 1742.23   95.49
   1   6   2 1943.81   96.29
   1   6   2 2004.70   94.99
   2  -6   2  129.59   26.70
  -2  -6  -2  127.39   18.60
   2  -6   2  104.09   26.80
  -2  -6  -2  121.19   11.10
  -2  -6  -2  143.39   19.40
   2  -6   2  107.99    8.30
   2   6   2  100.79   15.10
  -2   6  -2  101.89    8.00
  -2   6  -2  136.29   15.00
  -2   6  -2  163.28   20.60
  -2   6  -2  107.09    8.10
   2   6   2  103.09    9.30
   2   6   2  125.79   10.30
   3  -6   2  314.67   18.90
   3  -6   2  389.26   42.90
  -3  -6  -2  304.87   28.20
  -3  -6  -2  311.37   25.60
   3   6   2  312.97   19.80
  -3   6  -2  338.87   26.70
   3   6   2  349.87   20.20
  -3   6  -2  319.17   20.90
   3   6   2  323.17   27.20
  -4  -6  -2  108.09   14.50
  -4  -6  -2  116.79   23.60
   4  -6   2   93.29   23.90
   4  -6   2   69.99   10.10
  -4  -6  -2   56.59   12.90
   4   6   2  109.49   11.80
   4   6   2  110.99   10.60
  -4   6  -2   98.59   17.50
  -5  -6  -2  -13.80   12.30
  -5  -6  -2  -12.80    7.20
   5  -6   2   -0.20    6.60
   5  -6   2   34.80   19.00
  -5  -6  -2   -4.10    4.80
   5   6   2   -1.40    4.30
  -5   6  -2   -0.90    5.10
   5   6   2   -3.10    3.30
  -5   6  -2   -6.70    7.70
   6  -6   2   34.70   11.30
  -6  -6  -2   31.50    9.50
  -6  -6  -2   27.80   22.40
   6   6   2   48.10   10.20
  -6   6  -2   28.40   11.90
   6   6   2   32.60    8.10
  -6   6  -2   13.70   12.40
  -7  -6  -2  -30.00   18.70
  -7   6  -2    2.10   11.60
   7   6   2   -1.00    5.20
   7   6   2   -6.00    6.60
  -8  -6  -2   36.60   29.80
   8   6   2   18.80   10.00
  -9  -6  -2  -19.40   32.00
   9   6   2   -5.80    8.40
  -9  -7   2  107.39   41.30
   9   7  -2   60.89   13.70
  -8  -7   2   34.00   27.20
   8   7  -2   29.30   10.20
   8   7  -2   27.00   14.40
  -8   7   2   27.60   13.90
  -7  -7   2   33.20   24.90
   7  -7  -2   55.09   21.80
   7   7  -2   43.30   10.70
  -7   7   2   34.20   13.80
   7   7  -2   36.00   10.80
   7   7  -2   17.60    8.30
  -6  -7   2   60.79   22.70
   6   7  -2   56.19   10.70
   6   7  -2   50.79   11.10
  -6   7   2   63.39   14.40
   6   7  -2   41.00    9.50
  -5  -7   2   11.60   16.20
  -5  -7   2   -7.10    9.50
  -5   7   2   -2.10    8.10
   5   7  -2    1.50    5.10
   5   7  -2    1.10    5.20
   5   7  -2    6.80    6.40
  -4  -7   2   -0.20   12.00
  -4  -7   2   -0.50    8.50
  -4   7   2    6.20    7.70
   4   7  -2    5.70    5.20
   4   7  -2    0.60    5.30
  -3  -7   2    8.10   11.10
  -3  -7   2  -10.50    8.20
  -3   7   2    2.70    7.20
   3   7  -2    5.10    4.00
  -3   7   2    2.80    2.00
   3   7  -2    4.20    4.20
   3   7  -2    2.80    4.20
   2  -7  -2  315.97   21.30
   2  -7  -2  309.77   19.90
  -2  -7   2  354.56   28.00
   2   7  -2  330.47   25.40
   2   7  -2  359.56   21.00
   2   7  -2  377.26   28.00
   2   7  -2  353.16   20.50
  -2   7   2  340.17   18.40
   2   7  -2  346.27   21.30
  -2   7   2  252.57   24.90
   1  -7  -2  140.59   12.50
   1  -7  -2  157.58   12.20
  -1  -7   2  180.48   21.60
   1   7  -2  133.59   11.30
   1   7  -2  136.39   11.80
  -1   7   2  194.58   21.30
  -1   7   2  158.28   10.60
   1   7  -2  154.98   12.10
   1   7  -2  173.78   21.60
   0  -7  -2  275.97   18.30
   0  -7   2  263.87   21.20
   0  -7   2  241.48   16.10
   0   7  -2  279.87   24.40
   0   7  -2  277.47   17.10
   0   7  -2  267.57   16.60
   0   7  -2  264.87   18.00
   0   7   2  295.27   19.90
   0   7   2  276.37   16.50
  -1  -7  -2  982.60   55.29
  -1  -7  -2 1017.20   52.89
   1  -7   2  983.40   53.39
  -1   7  -2 1030.20   59.49
  -1   7  -2  887.11   53.29
   1   7   2 1051.09   50.99
  -1   7  -2 1065.79   50.59
   1   7   2  991.30   53.19
  -1   7  -2  999.70   49.99
   1   7   2 1011.70   52.09
  -2  -7  -2   34.70   13.00
  -2  -7  -2   26.80    7.50
   2  -7   2   20.30    4.80
   2   7   2   15.60    9.00
  -2   7  -2   18.50    4.30
  -2   7  -2   15.40    9.40
  -2   7  -2   10.00    7.80
   2   7   2   20.80    6.20
  -2   7  -2   21.60    4.40
  -3  -7  -2 1412.56   83.59
   3  -7   2 1411.76   86.39
  -3  -7  -2 1362.96   72.29
  -3   7  -2 1479.25   71.59
  -3   7  -2 1383.76   78.19
  -3   7  -2 1407.36   66.69
   3   7   2 1290.57   75.89
   3   7   2 1385.76   69.59
  -3   7  -2 1389.86   66.19
   3   7   2 1352.06   69.39
  -4  -7  -2  195.88   29.70
  -4  -7  -2  157.18   19.70
   4  -7   2  211.78   15.00
  -4   7  -2  229.08   28.60
  -4   7  -2  227.18   17.50
   4   7   2  213.18   16.30
   4   7   2  194.28   15.30
   5  -7   2  303.57   21.80
  -5  -7  -2  253.67   39.20
  -5  -7  -2  320.77   25.00
   5  -7   2  384.76   44.70
  -5   7  -2  305.97   30.30
  -5   7  -2  330.37   23.70
   5   7   2  309.87   21.60
   5   7   2  321.67   21.50
  -6  -7  -2  439.56   31.50
  -6  -7  -2  365.76   51.79
   6   7   2  418.26   27.00
  -6   7  -2  400.66   37.00
   6   7   2  440.66   28.20
  -6   7  -2  426.56   29.10
  -7  -7  -2  -23.10   21.70
  -7   7  -2  -11.40   12.20
   7   7   2   15.30    9.30
   7   7   2    2.20    6.40
  -8  -7  -2  229.48   53.19
   8   7   2  296.37   24.80
  -8  -8   2   25.40   28.70
   8   8  -2   59.29   14.10
  -7  -8   2  216.28   41.20
   7   8  -2  229.78   20.40
   7   8  -2  173.48   20.30
   7   8  -2  153.98   20.20
  -7   8   2  189.08   25.00
  -6  -8   2  362.76   76.59
  -6   8   2  371.96   31.40
   6   8  -2  398.66   28.90
   6   8  -2  430.66   29.90
   6   8  -2  466.75   29.10
  -5  -8   2   26.30   18.20
   5   8  -2   49.50   10.60
   5   8  -2   51.09   11.30
   5   8  -2   64.69   11.10
  -5   8   2   65.39   15.00
  -4  -8   2 1178.58   70.29
   4   8  -2 1068.39   57.79
   4   8  -2 1036.70   56.09
   4   8  -2 1091.09   57.79
  -4   8   2 1094.39   61.99
  -3  -8   2  101.59   20.80
   3   8  -2  112.39   13.00
  -3   8   2  103.89   18.50
   3   8  -2  139.49   16.40
   3   8  -2   91.19   14.70
  -3   8   2  103.99    7.90
  -2  -8   2 1042.70   61.79
   2   8  -2 1007.60   53.59
  -2   8   2 1034.80   50.49
   2   8  -2 1001.70   53.09
   2   8  -2 1026.20   52.79
   1  -8  -2  793.72   42.10
  -1  -8   2  781.82   47.50
  -1   8   2  747.73   46.40
   1   8  -2  741.43   41.00
   1   8  -2  801.32   41.50
   1   8  -2  785.52   49.90
  -1   8   2  764.82   39.30
   1   8  -2  721.63   40.50
   0  -8  -2  374.06   24.60
   0  -8   2  418.56   28.40
   0   8   2  385.16   22.20
   0   8  -2  342.57   22.00
   0   8  -2  413.86   32.10
   0   8   2  352.26   25.90
   0   8  -2  389.36   24.80
   0   8  -2  367.96   22.70
   1  -8   2  743.63   39.40
  -1  -8  -2  800.72   43.70
  -1  -8  -2  734.53   46.00
   1  -8   2  784.62   44.20
   1   8   2  798.72   40.70
  -1   8  -2  720.23   55.49
  -1   8  -2  856.61   51.49
  -1   8  -2  712.73   44.90
   1   8   2  761.12   43.40
   1   8   2  765.22   42.40
  -2  -8  -2   60.59   10.60
  -2  -8  -2   42.90   14.60
   2  -8   2   56.49    7.40
   2  -8   2   63.09   13.20
  -2   8  -2   58.89   12.90
  -2   8  -2   55.89    7.60
  -2   8  -2   49.50    6.90
  -2   8  -2   40.70   13.90
   2   8   2   65.29    9.40
   2   8   2   78.09   11.80
   2   8   2   54.89   12.90
   3  -8   2  110.09   28.70
  -3  -8  -2  154.28   19.50
   3  -8   2  100.59    9.70
  -3  -8  -2  138.19   25.10
  -3   8  -2  121.09   16.70
  -3   8  -2  135.39   22.60
  -3   8  -2  109.59    8.30
   3   8   2  112.49   13.10
  -3   8  -2   99.99    8.80
   3   8   2  129.39   14.70
   4  -8   2   24.90    6.20
  -4  -8  -2   31.50   17.10
  -4  -8  -2   37.20    9.80
   4  -8   2   27.90   22.60
  -4   8  -2   33.10   15.00
   4   8   2   31.80    7.70
  -4   8  -2   54.59   21.60
   4   8   2   31.40    9.30
   5  -8   2    9.10   20.20
  -5  -8  -2   -0.90    6.30
  -5  -8  -2  -17.20   14.70
   5   8   2    5.40    8.20
  -5   8  -2    6.80   11.00
   5   8   2    2.60    5.00
  -6  -8  -2   37.00   43.80
  -6  -8  -2    8.50    7.60
   6   8   2   12.40    8.50
  -6   8  -2   11.90   13.90
   6   8   2    1.10    5.00
  -6   8  -2    3.50    8.90
  -7  -8  -2  -29.30   21.10
   7   8   2   -2.30    8.40
  -8  -8  -2   12.50   32.10
   8   8   2   18.70   11.20
  -7  -9   2   14.30   25.30
   7   9  -2   24.00   11.10
  -7   9   2   28.60   14.90
  -6  -9   2   41.00   23.40
   6   9  -2   36.40   11.20
   6   9  -2   39.90   10.60
  -6   9   2   41.30   14.90
   6   9  -2   41.80   11.60
  -5  -9   2    3.20   18.20
  -5   9   2    0.00    9.20
   5   9  -2   -8.00    6.40
   5   9  -2    4.20    6.60
  -4  -9   2   -2.20   16.40
   4   9  -2    8.00    5.90
  -4   9   2   -2.10    8.60
   4   9  -2   -5.40    4.60
   4   9  -2    0.80    6.30
  -4   9   2   -1.10    2.60
  -4   9   2   -0.10    3.10
  -3  -9   2    0.20   13.70
  -3   9   2   -0.30   10.40
   3   9  -2   -2.60    5.50
  -3   9   2    4.80    2.90
   3   9  -2    5.60    5.30
   3   9  -2   -2.50    4.70
  -2  -9   2  173.48   25.80
   2   9  -2  186.88   15.20
   2   9  -2  179.88   14.70
  -2   9   2  130.79   21.90
  -2   9   2  155.18   11.60
   2   9  -2  150.88   14.50
  -1  -9   2   86.49   30.60
  -1   9   2  106.59   10.00
   1   9  -2  138.99   14.30
   1   9  -2  151.08   15.60
   1   9  -2  124.69   15.00
  -1   9   2  107.59   18.40
   0  -9   2  152.28   21.60
   0  -9  -2  126.39   15.30
   0   9  -2  134.39   12.20
   0   9  -2  155.78   24.20
   0   9   2  150.18   11.80
   0   9   2  146.29   18.80
   0   9  -2  122.99   11.80
  -1  -9  -2  675.53   41.50
  -1  -9  -2  624.04   37.80
   1  -9   2  651.73   39.50
   1   9   2  638.94   37.20
  -1   9  -2  515.85   38.50
   1   9   2  635.34   34.40
  -1   9  -2  580.44   33.50
  -1   9  -2  656.23   45.90
  -1   9  -2  610.64   33.60
  -2  -9  -2   27.20   27.90
  -2  -9  -2    8.80    7.90
   2  -9   2    9.70    9.60
   2   9   2    6.20    4.80
  -2   9  -2    7.20    4.30
   2   9   2    8.90    7.30
  -2   9  -2   -0.90    3.40
  -2   9  -2   -0.70   10.80
  -2   9  -2    3.90    9.40
   2   9   2    2.60    9.90
  -3  -9  -2  915.21   59.89
  -3  -9  -2  959.70   54.39
   3  -9   2  696.83   67.99
  -3   9  -2  986.80   52.39
   3   9   2  869.11   47.60
  -3   9  -2  848.52   44.70
  -3   9  -2  871.11   58.99
   3   9   2  914.11   48.60
  -3   9  -2  836.12   43.70
  -4  -9  -2  267.27   38.60
  -4  -9  -2  231.58   22.40
   4  -9   2  198.28   36.40
   4   9   2  208.88   17.50
   4   9   2  215.48   19.30
  -4   9  -2  190.58   30.80
  -4   9  -2  239.08   20.90
  -5  -9  -2  186.28   37.40
   5  -9   2  143.99   33.40
  -5   9  -2  225.78   21.20
   5   9   2  193.98   17.50
   5   9   2  226.88   19.60
  -5   9  -2  230.68   34.70
  -6  -9  -2  380.06   55.49
   6   9   2  367.46   27.20
   6   9   2  360.96   25.90
  -7  -9  -2  -11.00   26.10
   7   9   2    0.40    8.40
  -6 -10   2  257.47   47.30
  -6  10   2  305.57   40.30
   6  10  -2  307.67   24.80
  -5 -10   2   11.80   24.60
  -5  10   2   41.10   14.40
   5  10  -2   38.60   11.90
   5  10  -2   34.10   10.50
   5  10  -2   47.00   12.80
  -4 -10   2  741.33   59.59
   4  10  -2  780.32   44.30
   4  10  -2  749.62   45.20
  -4  10   2  796.22   39.20
  -4  10   2  819.92   51.59
  -4  10   2  734.53   39.50
   4  10  -2  755.82   44.70
  -3 -10   2   68.19   22.40
  -3  10   2   91.29   10.80
  -3  10   2   76.99    8.70
  -3  10   2  112.79   21.50
   3  10  -2   83.29   13.00
   3  10  -2   90.79   13.10
   3  10  -2   78.49   11.90
  -2 -10   2  706.43   48.60
   2  10  -2  653.43   37.30
  -2  10   2  593.74   33.10
   2  10  -2  608.74   36.50
   2  10  -2  579.94   36.00
  -1 -10   2  733.13   48.80
  -1  10   2  688.03   37.50
  -1  10   2  629.74   46.40
   1  10  -2  692.63   39.60
   1  10  -2  719.13   39.60
   1  10  -2  727.33   41.60
   0 -10   2  195.08   30.30
   0 -10  -2  178.68   21.20
   0  10   2  170.48   22.80
   0  10  -2  164.88   20.70
   0  10  -2  144.49   13.60
   0  10   2  134.59   13.20
   0  10  -2  164.68   14.20
   1 -10   2  811.82   48.80
  -1 -10  -2  695.63   55.99
  -1 -10  -2  760.82   50.09
   1  10   2  772.82   42.10
  -1  10  -2  798.82   42.00
  -1  10  -2  725.43   48.30
  -1  10  -2  772.92   41.30
   1  10   2  795.92   46.20
   2 -10   2   52.49   14.60
  -2 -10  -2   43.50   11.10
  -2 -10  -2   28.70   16.40
   2  10   2   34.50    8.20
  -2  10  -2   27.90    6.80
  -2  10  -2   42.40   14.30
  -2  10  -2   36.90   16.40
  -2  10  -2   36.90    7.00
   2  10   2   42.60   15.80
   3 -10   2  167.48   44.90
  -3 -10  -2  171.98   31.70
  -3 -10  -2  158.88   21.80
  -3  10  -2  144.29   12.60
  -3  10  -2  206.08   24.30
   3  10   2  184.28   17.60
  -3  10  -2  181.98   30.90
  -3  10  -2  149.09   11.40
   3  10   2  165.18   17.40
  -4 -10  -2   37.70   12.20
  -4 -10  -2   53.09   24.40
  -4  10  -2   45.90   18.10
   4  10   2   49.70   10.80
  -4  10  -2   54.99   13.60
   4  10   2   68.19   12.90
  -5 -10  -2   26.90   42.60
   5  10   2   30.00   10.50
   5  10   2    6.30    7.10
  -5  10  -2    5.60    9.50
  -6 -10  -2    5.80   24.60
  -6  10  -2   -1.80   11.00
   6  10   2    3.00   10.20
  -5 -11   2    3.40   21.50
   5  11  -2    3.00    9.50
  -5  11   2  -18.30   10.00
   5  11  -2   -1.60    8.30
  -4 -11   2   -4.60   18.90
  -4  11   2    1.60    4.30
   4  11  -2    2.00    8.20
  -4  11   2   -6.80    3.40
   4  11  -2    4.90    6.80
   4  11  -2    1.60    7.80
  -3 -11   2   -4.90   17.70
  -3  11   2   18.10    5.50
   3  11  -2   11.90    8.10
  -3  11   2   27.90   16.10
  -3  11   2   16.50    7.80
   3  11  -2   13.50    9.00
   3  11  -2   16.40    8.70
  -2 -11   2   98.79   25.20
  -2  11   2   89.69   21.20
   2  11  -2   79.89   13.00
  -2  11   2   97.19   10.90
   2  11  -2   90.79   20.80
   2  11  -2  110.69   14.50
  -2  11   2   95.29   12.40
  -1 -11   2   -2.00   14.80
   1  11  -2    6.00    5.70
   1  11  -2   13.80    9.30
  -1  11   2   17.10    6.10
  -1  11   2   27.70   15.20
   1  11  -2   28.40    8.90
   0 -11   2   82.79   20.70
   0  11  -2  123.89   14.00
   0  11   2  111.89   26.20
   0  11   2   96.99   12.10
   0  11  -2  149.99   16.70
   0  11  -2  119.49   19.70
   1 -11   2  311.97   38.20
  -1 -11  -2  343.97   37.10
   1  11   2  295.67   26.50
  -1  11  -2  237.98   30.50
  -1  11  -2  302.57   20.50
   1  11   2  325.77   36.10
  -1  11  -2  304.57   21.30
  -2 -11  -2   19.00   17.70
  -2  11  -2  -13.20   10.90
   2  11   2   -3.40    4.70
   2  11   2   -4.50    7.30
  -2  11  -2   -0.90    4.10
  -2  11  -2    0.80    5.10
  -3 -11  -2  572.74   50.59
   3  11   2  548.25   36.50
  -3  11  -2  632.14   41.60
  -3  11  -2  519.65   29.80
   3  11   2  546.05   34.00
  -3  11  -2  568.84   31.70
  -4 -11  -2  101.99   30.60
   4  11   2  102.39   14.90
   4  11   2  135.39   18.40
  -4  11  -2  126.49   19.40
  -5 -11  -2  121.49   35.20
  -5  11  -2  131.89   19.90
   5  11   2  168.28   20.90
  -4 -12   2  367.76   50.89
   4  12  -2  386.36   30.90
  -4  12   2  372.36   22.90
   4  12  -2  381.06   29.30
  -4  12   2  402.96   24.20
  -4  12   2  438.66   38.90
   4  12  -2  365.56   29.70
  -3 -12   2   44.80   25.20
  -3  12   2   36.10   17.40
   3  12  -2   43.70   11.10
  -3  12   2   24.80    6.40
   3  12  -2   45.30   13.40
   3  12  -2   34.90   10.80
  -3  12   2   39.30    8.80
  -2 -12   2  256.77   37.10
   2  12  -2  290.57   24.40
  -2  12   2  274.47   37.30
  -2  12   2  307.67   26.80
  -2  12   2  292.17   20.30
   2  12  -2  327.27   24.00
   2  12  -2  331.47   27.00
  -1 -12   2  408.76   43.80
  -1  12   2  313.37   21.80
   1  12  -2  332.47   29.00
  -1  12   2  266.47   35.80
   1  12  -2  339.87   25.20
   1  12  -2  343.37   24.10
  -1  12   2  319.47   23.30
   0 -12   2   47.00   20.10
   0  12   2   80.09   11.90
   0  12  -2   46.30   19.90
   0  12  -2   96.79   14.20
   0  12   2   57.79   18.10
   0  12  -2   84.69   12.90
   0  12   2   54.29   12.80
   1  12   2  338.47   31.00
  -1  12  -2  339.97   22.80
  -1  12  -2  333.97   34.00
   1  12   2  333.17   23.80
  -1  12  -2  372.26   24.70
  -2 -12  -2    6.80   19.00
   2  12   2   16.00   11.30
  -2  12  -2   11.90    6.60
  -2  12  -2   11.30    5.20
  -2  12  -2   15.60   14.60
   2  12   2  -12.90   11.30
  -3 -12  -2   78.79   29.90
   3  12   2   63.99   13.00
  -3  12  -2   86.09    9.90
  -3  12  -2   63.39   10.00
  -3  12  -2   78.09   19.40
   3  12   2   78.59   15.60
 -10   0   3   57.29   40.00
  -8   0   3  477.05   58.39
  -7   0   3   55.79   23.20
   6   0  -3 1827.22   92.89
  -6   0   3 2134.59  108.39
   6   0  -3 1939.21   93.39
   5   0  -3   75.29   11.90
   5   0  -3   74.59    7.30
   5   0  -3   92.99   19.10
  -5   0   3  110.59   20.10
   5   0  -3   82.29    7.90
  -4   0   3 2601.34  124.59
   4   0  -3 2531.75  121.09
   4   0  -3 2466.55  122.79
   4   0  -3 2383.16  116.99
   3   0  -3 1753.12   84.39
  -3   0   3 1752.82   83.99
  -3   0   3 1811.72   88.99
   3   0  -3 1796.92   88.29
   3   0  -3 1835.52   87.29
   2   0  -3   41.50    4.40
   2   0  -3   50.29    7.80
  -2   0   3   31.90    5.60
   2   0  -3   44.10    6.40
  -2   0   3   42.10    7.50
  -2   0   3   34.00    4.20
  -1   0   3 4331.47  208.18
  -1   0   3 4614.84  208.08
   1   0  -3 4364.16  211.98
  -1   0   3 4535.35  207.58
  -1   0   3 4310.57  211.88
   1   0  -3 4707.33  208.08
   0   0   3  444.56   30.00
   0   0   3  488.75   24.20
   0   0   3  531.25   24.60
   0   0  -3  476.75   30.10
   1   0   3  428.66   31.20
   1   0   3  414.46   29.50
  -1   0  -3  465.15   21.90
   1   0   3  466.75   22.00
  -1   0  -3  419.86   31.80
  -1   0  -3  433.66   31.70
   2   0   3  513.85   35.50
  -2   0  -3  560.04   34.10
  -2   0  -3  552.34   39.00
  -2   0  -3  579.04   26.90
   2   0   3  555.84   26.90
   2   0   3  522.95   36.10
   3   0   3   13.40   10.00
  -3   0  -3   24.90    8.50
  -3   0  -3   19.40   13.10
   3   0   3   26.30   11.20
   4   0   3  107.79   20.90
  -4   0  -3  119.29   24.60
   4   0   3   91.59    6.60
  -4   0  -3  103.49    7.40
   5   0   3   49.10    5.50
  -5   0  -3   36.50    5.70
  -5   0  -3   56.39   21.90
  -6   0  -3    6.30   17.40
  -7   0  -3    2.70   21.80
  -8   0  -3   48.60   62.19
  -9   0  -3   49.90   39.20
 -10   0  -3   -8.50   39.60
 -10  -1   3    6.70   32.30
 -10   1   3   24.30   34.30
  -9  -1   3   22.50   25.00
  -9   1   3   28.50   30.90
  -8  -1   3  105.79   30.20
  -8   1   3   35.80   25.00
  -7  -1   3   36.10   20.50
  -7   1   3   18.20   18.00
  -6  -1   3   21.20   13.40
   6  -1  -3   -0.60   11.20
   6   1  -3   -1.80    3.30
   6   1  -3    0.80    4.30
  -5  -1   3   31.20   11.50
   5  -1  -3   50.09   12.90
   5  -1  -3   35.00    5.80
   5   1  -3    9.90    7.20
  -5   1   3   11.00   11.50
   5   1  -3   15.40    9.60
   5   1  -3   18.90    5.30
   5   1  -3   13.60    4.20
  -4  -1   3  469.85   31.10
   4  -1  -3  495.65   29.20
   4  -1  -3  419.96   22.70
   4   1  -3  456.75   24.50
  -4   1   3  434.16   22.20
  -4   1   3  430.66   29.80
   4   1  -3  464.75   23.80
   4   1  -3  417.36   29.20
   4   1  -3  426.26   27.10
  -4   1   3  437.36   26.80
  -3  -1   3  848.22   47.10
   3  -1  -3  818.22   41.50
   3  -1  -3  850.71   45.00
  -3  -1   3  865.71   41.90
   3  -1  -3  870.71   44.40
  -3   1   3  840.92   41.10
   3   1  -3  883.41   43.40
  -3   1   3  917.31   46.30
  -3   1   3  878.71   44.60
   3   1  -3  837.02   46.40
   2  -1  -3 1178.28   53.59
  -2  -1   3 1103.39   52.09
  -2  -1   3 1118.49   55.39
   2  -1  -3 1165.78   52.09
   2  -1  -3 1188.78   53.99
  -2   1   3 1064.49   53.79
  -2   1   3  998.00   53.59
  -2   1   3  996.20   51.69
   2   1  -3 1029.80   52.09
   2   1  -3 1053.69   54.89
   1  -1  -3 3555.34  160.68
  -1  -1   3 3503.25  164.38
  -1  -1   3 3460.95  160.88
  -1  -1   3 3299.87  162.28
   1   1  -3 3506.15  163.68
  -1   1   3 3551.74  160.88
  -1   1   3 3454.85  162.18
  -1   1   3 3393.26  160.68
   0  -1   3  267.07   14.20
   0  -1  -3  267.67   14.60
   0  -1   3  262.27   18.70
   0  -1  -3  276.57   13.80
   0   1   3  275.27   20.50
   0   1  -3  302.97   20.80
   0   1   3  271.97   14.90
   0   1  -3  272.57   14.30
  -1  -1  -3 4257.37  203.58
  -1  -1  -3 4228.78  196.88
   1  -1   3 4320.67  196.78
   1  -1   3 4318.97  201.88
   1  -1   3 4275.37  208.78
  -1  -1  -3 4218.78  203.98
  -1  -1  -3 4162.08  196.38
   1   1   3 4291.87  196.38
  -1   1  -3 4324.97  201.08
   1   1   3 3991.20  196.28
   1   1   3 4354.06  203.08
   2  -1   3 1223.68   70.39
   2  -1   3 1215.98   58.99
  -2  -1  -3 1245.58   69.09
  -2  -1  -3 1271.27   60.09
  -2  -1  -3 1234.08   67.49
   2  -1   3 1177.68   65.29
  -2   1  -3 1309.87   58.59
  -2   1  -3 1284.17   64.09
   2   1   3 1269.47   67.39
   2   1   3 1184.98   59.19
   2   1   3 1281.67   59.29
  -2   1  -3 1328.27   73.79
  -3  -1  -3 1360.96   77.89
  -3  -1  -3 1441.16   65.99
  -3  -1  -3 1411.66   74.69
   3  -1   3 1381.56   77.19
   3  -1   3 1397.56   73.19
   3  -1   3 1401.56   64.69
   3   1   3 1390.06   65.39
  -3   1  -3 1344.87   64.49
  -3   1  -3 1329.67   80.79
  -3   1  -3 1274.37   69.49
   3   1   3 1383.66   75.59
  -4  -1  -3 2930.01  141.09
  -4  -1  -3 3174.58  157.28
   4  -1   3 2931.51  143.19
   4  -1   3 2945.01  139.29
   4  -1   3 2848.11  149.29
  -4   1  -3 3108.99  160.38
   4   1   3 3119.19  140.39
  -4   1  -3 2916.11  144.49
  -4   1  -3 3062.59  139.79
   4   1   3 3018.30  152.58
   5  -1   3   17.70    6.90
  -5  -1  -3   16.90    4.80
   5  -1   3   18.00    3.10
  -5  -1  -3   26.30   16.10
   5  -1   3   19.00   15.70
  -5   1  -3   11.40   16.70
   5   1   3   11.40    3.40
  -6  -1  -3  892.91   48.80
   6  -1   3  890.71   51.99
  -6  -1  -3  935.11   69.69
  -6   1  -3 1070.89   75.39
   6   1   3  972.20   46.70
  -6   1  -3  925.81   46.60
  -7  -1  -3   57.29    9.80
  -7  -1  -3   87.09   31.20
  -7   1  -3   93.39   34.30
  -8  -1  -3  257.47   53.99
  -8   1  -3  290.57   54.09
  -9  -1  -3  249.08   56.89
  -9   1  -3  225.08   57.79
 -10  -1  -3   11.50   40.70
 -10   1  -3   28.50   44.70
 -10  -2   3   11.50   33.70
 -10   2   3   -7.50   32.20
  -9  -2   3  129.39   35.80
  -9   2   3  146.39   40.60
  -8  -2   3  380.76   51.39
  -8   2   3  401.16   53.79
  -7  -2   3   33.70   18.60
  -7   2   3   52.39   21.90
   7   2  -3   31.60    8.50
   7   2  -3   50.49    9.00
   6  -2  -3 1541.15   88.59
  -6  -2   3 1646.94   93.59
   6   2  -3 1605.74   80.69
   6   2  -3 1736.43   81.49
  -6   2   3 1677.63   93.69
   5  -2  -3   75.69   11.90
   5  -2  -3   73.79   16.00
  -5   2   3   78.59   17.90
   5   2  -3   73.69   16.20
   5   2  -3   89.59   10.40
  -5   2   3  107.99   14.50
   5   2  -3   89.59   10.00
   4  -2  -3 1719.03   83.49
   4  -2  -3 1628.84   84.09
   4  -2  -3 1669.23   82.29
  -4  -2   3 1750.82   88.19
   4   2  -3 1697.23   80.59
  -4   2   3 1585.54   85.99
  -4   2   3 1631.94   83.19
   4   2  -3 1602.94   86.59
   4   2  -3 1745.13   81.69
   3  -2  -3 1008.30   46.30
   3  -2  -3  941.61   45.50
   3  -2  -3  907.21   41.90
  -3  -2   3 1000.60   49.60
  -3   2   3  888.21   45.60
   3   2  -3  811.22   43.20
  -3   2   3  761.92   41.60
  -3   2   3  803.42   46.10
   3   2  -3  840.52   47.80
  -2  -2   3  318.37   21.00
  -2  -2   3  324.87   17.40
   2  -2  -3  333.47   16.20
   2  -2  -3  334.27   19.60
  -2  -2   3  345.17   20.30
   2   2  -3  309.17   20.60
  -2   2   3  321.37   16.80
   2   2  -3  319.37   19.00
  -2   2   3  330.67   19.50
   2   2  -3  302.57   17.40
  -1  -2   3 3075.09  137.69
  -1  -2   3 2966.70  139.69
  -1  -2   3 3037.00  140.99
   1  -2  -3 2926.01  139.49
   1  -2  -3 3036.30  136.79
  -1   2   3 2682.43  139.39
  -1   2   3 2993.60  136.89
   1   2  -3 3036.00  140.29
   1   2  -3 2783.62  139.29
   1   2  -3 2957.40  137.69
   0  -2   3  167.68   13.70
   0  -2  -3  158.18    9.80
   0  -2   3  161.88    9.10
   0  -2  -3  146.29    8.60
   0  -2  -3  129.19   13.40
   0   2   3  142.09    8.50
   0   2   3  166.48   10.40
   0   2  -3  169.68    9.30
   0   2  -3  152.98   13.00
   0   2   3  150.48   12.10
  -1  -2  -3 1281.27   55.09
  -1  -2  -3 1230.78   61.19
   1  -2   3 1166.78   59.79
   1  -2   3 1214.58   54.49
  -1   2  -3 1114.29   54.49
   1   2   3 1096.99   54.49
   1   2   3 1075.69   54.59
  -1   2  -3 1093.79   58.69
   1   2   3 1068.39   58.99
  -2  -2  -3  295.77   24.40
   2  -2   3  319.27   34.10
  -2  -2  -3  242.48   15.30
   2  -2   3  257.97   20.60
   2  -2   3  247.68   14.50
  -2   2  -3  327.47   20.30
   2   2   3  291.27   15.40
   2   2   3  318.17   15.50
  -2   2  -3  298.07   14.50
   2   2   3  294.67   22.30
  -3  -2  -3   15.90   10.60
  -3  -2  -3   11.90   10.20
  -3  -2  -3   25.80    4.60
   3  -2   3   26.20   13.10
   3  -2   3   22.30    8.60
   3   2   3   12.80    3.20
  -3   2  -3    8.00   14.40
   3   2   3   29.60   11.70
  -3   2  -3   10.00    6.00
   4  -2   3   29.10   12.30
  -4  -2  -3   34.90   15.00
   4  -2   3   42.80    7.50
  -4   2  -3   15.50    7.50
   4   2   3   21.50    4.30
   4   2   3    7.50   10.50
  -4   2  -3   24.20   17.20
   5  -2   3   26.00    7.90
   5  -2   3    4.80   11.80
  -5  -2  -3   29.30    6.30
  -5  -2  -3   22.70   16.50
   5  -2   3   61.19   20.40
   5   2   3   33.40    5.50
  -5   2  -3   27.20   20.00
  -5   2  -3   19.70    7.60
  -6  -2  -3   64.79   24.90
   6  -2   3   56.19   12.50
  -6  -2  -3   83.39   11.00
  -6   2  -3   89.19   29.90
   6   2   3   76.69    8.70
  -7  -2  -3   30.40   25.30
  -7  -2  -3   10.50    6.00
  -7   2  -3   18.60   25.50
  -8  -2  -3  131.69   40.50
  -8   2  -3  128.09   42.70
  -9  -2  -3   91.49   40.60
  -9   2  -3   93.09   45.00
 -10  -2  -3   21.30   43.90
 -10   2  -3   74.79   52.39
 -10  -3   3   21.00   33.80
 -10   3   3  -17.80   32.10
  -9  -3   3   45.50   28.50
  -9   3   3   41.10   31.30
  -8  -3   3   20.20   21.30
  -8   3   3   35.00   25.70
  -7  -3   3   -2.60   14.70
   7   3  -3    8.40    5.80
   7   3  -3    7.20    5.70
  -7   3   3    7.70   17.60
  -6  -3   3    2.50   11.60
   6  -3  -3   20.00   12.30
  -6   3   3   13.30    8.10
  -6   3   3    8.50   14.20
   6   3  -3    5.20    4.60
   6   3  -3    5.60    4.90
   5  -3  -3   20.80    7.70
   5  -3  -3   21.30   10.10
  -5  -3   3   32.80   14.30
   5  -3  -3   26.40    8.60
   5   3  -3   18.80    6.00
  -5   3   3   18.70    6.90
  -5   3   3   10.00   11.60
   5   3  -3   32.20    6.80
  -4  -3   3  308.47   25.40
   4  -3  -3  311.17   21.50
   4  -3  -3  294.87   20.80
   4  -3  -3  297.07   21.20
  -4   3   3  267.27   24.20
   4   3  -3  315.27   20.80
   4   3  -3  284.17   24.20
  -4   3   3  310.37   20.70
   3  -3  -3  216.58   16.10
  -3  -3   3  212.38   19.00
   3  -3  -3  208.48   10.80
   3  -3  -3  199.08   16.60
  -3  -3   3  180.78   15.30
   3   3  -3  216.88   14.90
   3   3  -3  210.58   13.50
   3   3  -3  225.38   14.50
  -3   3   3  219.78   15.70
  -3   3   3  211.48   11.90
   3   3  -3  243.38   19.00
  -2  -3   3  428.56   26.30
  -2  -3   3  444.86   25.30
   2  -3  -3  427.56   20.20
   2  -3  -3  434.36   26.00
   2  -3  -3  423.46   24.60
   2   3  -3  389.46   23.90
  -2   3   3  385.56   20.20
   2   3  -3  374.96   24.90
  -2   3   3  382.86   24.20
   1  -3  -3 1476.75   67.79
   1  -3  -3 1486.35   65.09
  -1  -3   3 1439.16   65.99
  -1  -3   3 1378.26   69.89
  -1  -3   3 1361.96   68.39
   1   3  -3 1315.67   68.99
  -1   3   3 1283.97   68.49
   1   3  -3 1368.56   65.99
  -1   3   3 1280.57   64.69
   0  -3  -3   10.90    3.20
   0  -3   3    9.40    5.60
   0   3  -3    7.60    5.00
   0   3   3   12.30    3.80
  -1  -3  -3 2937.01  143.09
  -1  -3  -3 3050.59  138.59
   1  -3   3 2858.61  143.49
   1  -3   3 3096.69  137.59
  -1  -3  -3 3015.30  138.49
  -1   3  -3 2955.10  137.69
  -1   3  -3 2979.70  142.99
   1   3   3 2814.22  138.29
   1   3   3 2897.31  141.49
   1   3   3 2928.11  137.99
   2  -3   3 1521.85   81.49
  -2  -3  -3 1508.05   76.09
  -2  -3  -3 1772.42   84.49
   2  -3   3 1627.64   74.39
   2  -3   3 1560.34   91.39
   2   3   3 1615.94   81.89
  -2   3  -3 1538.55   74.69
   2   3   3 1636.54   75.69
  -2   3  -3 1621.14   80.89
   2   3   3 1512.35   75.49
  -3  -3  -3 1472.35   83.89
   3  -3   3 1468.15   87.39
  -3  -3  -3 1529.95   74.89
   3  -3   3 1471.25   80.49
   3   3   3 1643.84   73.79
   3   3   3 1525.55   82.09
   3   3   3 1538.75   73.79
  -3   3  -3 1534.65   78.69
  -4  -3  -3 2230.48  110.79
   4  -3   3 2104.99  107.89
  -4  -3  -3 2147.89  100.59
  -4  -3  -3 2124.19  114.29
   4   3   3 2100.09   99.09
  -4   3  -3 1959.50  120.39
   4   3   3 2033.10  109.69
   4   3   3 1996.40   99.29
  -4   3  -3 1986.40  103.89
  -5  -3  -3   36.50   18.80
   5  -3   3   42.80    8.80
   5  -3   3   30.30   13.80
  -5  -3  -3   43.30    8.00
   5  -3   3   42.70   17.80
  -5   3  -3   18.00    8.30
  -5   3  -3   55.79   24.30
   5   3   3   28.40    5.80
  -6  -3  -3  866.21   65.99
  -6  -3  -3  901.81   47.30
   6  -3   3  883.21   48.40
   6  -3   3  743.83   56.49
  -6   3  -3 1016.00   77.09
  -6   3  -3  804.12   49.20
  -7  -3  -3   23.70   24.40
  -7  -3  -3   40.30   10.00
  -7   3  -3    2.70   28.80
  -8  -3  -3  149.79   43.70
  -8   3  -3  219.68   52.29
  -9  -3  -3  149.49   45.30
  -9   3  -3  121.89   49.80
 -10  -4   3    8.00   32.70
 -10   4   3   26.50   38.40
  -9  -4   3  116.79   35.20
  -9   4   3  110.19   39.00
  -8  -4   3  396.66   52.29
  -8   4   3  449.56   58.49
  -7  -4   3   72.39   23.60
  -7   4   3   69.69   25.80
  -7   4   3   62.79   14.30
   7   4  -3   82.29   13.50
   7   4  -3   66.09   12.70
   6  -4  -3 1198.28   75.39
   6  -4  -3 1283.47   71.49
  -6  -4   3 1381.16   80.39
   6   4  -3 1313.87   66.69
  -6   4   3 1227.68   79.99
   6   4  -3 1375.96   67.29
  -6   4   3 1301.07   69.79
  -5  -4   3  246.78   31.20
   5  -4  -3  159.08   20.70
   5  -4  -3  190.58   18.10
   5  -4  -3  200.18   22.10
   5   4  -3  179.98   14.60
  -5   4   3  180.28   26.80
   5   4  -3  180.88   15.30
   4  -4  -3 1079.89   58.29
   4  -4  -3 1027.50   58.99
   4  -4  -3 1025.60   55.99
  -4  -4   3 1069.79   65.99
   4   4  -3 1117.69   55.79
   4   4  -3 1157.98   55.09
  -4   4   3 1084.79   57.29
   4   4  -3 1099.09   61.79
  -4   4   3 1068.59   62.19
   3  -4  -3  969.30   56.49
  -3  -4   3 1014.60   59.49
   3  -4  -3 1059.59   58.59
   3  -4  -3 1046.20   51.19
  -3  -4   3 1035.40   56.79
   3   4  -3 1128.89   56.59
  -3   4   3 1135.09   51.79
   3   4  -3 1092.09   59.39
  -3   4   3 1168.98   57.29
   3   4  -3 1090.09   54.09
   3   4  -3 1150.48   55.39
   2  -4  -3  157.28   15.90
   2  -4  -3  170.08    9.80
  -2  -4   3  174.88   15.20
   2  -4  -3  155.98   13.50
  -2  -4   3  174.98   16.10
   2   4  -3  166.78   14.50
  -2   4   3  169.78    9.40
   2   4  -3  180.48   12.50
  -2   4   3  156.58   14.40
   2   4  -3  181.68   11.50
   2   4  -3  152.78   14.80
  -1  -4   3 4133.59  199.88
   1  -4  -3 4290.57  200.98
   1  -4  -3 4007.60  194.38
   1  -4  -3 4235.38  196.38
  -1  -4   3 3904.41  197.88
   1   4  -3 4201.58  194.28
   1   4  -3 4123.79  195.18
   1   4  -3 4360.06  196.38
   1   4  -3 4361.66  199.78
  -1   4   3 4175.68  193.98
  -1   4   3 4227.38  198.68
   0  -4   3   19.20    7.20
   0  -4  -3   23.80    4.50
   0  -4  -3   17.90    4.70
   0   4  -3   14.10    3.40
   0   4  -3   10.20    5.60
   0   4  -3   18.40    3.20
   0   4   3   22.70    5.90
  -1  -4  -3 1556.94   74.29
   1  -4   3 1495.75   79.79
  -1  -4  -3 1558.64   78.39
  -1  -4  -3 1537.45   74.09
  -1   4  -3 1564.04   73.09
  -1   4  -3 1446.66   78.49
   1   4   3 1541.45   74.09
   1   4   3 1481.35   76.49
   1   4   3 1617.64   73.59
  -2  -4  -3  529.25   34.90
   2  -4   3  453.95   43.60
   2  -4   3  521.95   34.50
   2   4   3  536.45   27.40
  -2   4  -3  528.65   26.20
   2   4   3  531.05   27.60
   2   4   3  483.15   32.30
  -2   4  -3  553.94   33.20
  -3  -4  -3   93.49    8.90
  -3  -4  -3   69.89   16.80
   3  -4   3   99.59   16.50
   3  -4   3  112.89   24.50
   3   4   3   84.49    8.10
  -3   4  -3  103.59   14.90
   3   4   3   90.69    7.80
   3   4   3   92.29   17.10
  -4  -4  -3   -1.90   10.60
   4  -4   3    0.40    9.70
   4  -4   3    2.70   15.40
  -4  -4  -3    2.20    3.70
   4   4   3   21.60    5.50
   4   4   3   13.20    3.90
   4   4   3    3.70   10.60
  -4   4  -3    9.30    7.30
   5  -4   3   -3.30   11.20
  -5  -4  -3   10.70    5.60
  -5  -4  -3   -7.70   12.10
   5  -4   3    9.50   16.70
  -5   4  -3   36.00   24.80
  -5   4  -3    6.90    7.70
   5   4   3   20.50    6.30
   5   4   3   21.40    5.40
  -6  -4  -3   57.29   25.20
   6  -4   3   49.30   20.30
  -6  -4  -3   72.79   11.50
  -6   4  -3   78.19   33.00
  -6   4  -3   45.70   12.20
   6   4   3   39.50    8.70
   6   4   3   53.49    7.90
   7  -4   3   -4.90   20.90
  -7  -4  -3    3.30    8.40
  -7  -4  -3  -13.10   21.00
  -7   4  -3   40.30   32.30
   7   4   3   11.40    7.20
  -7   4  -3    2.50   12.20
   7   4   3    9.30    5.50
  -8  -4  -3  134.19   40.90
  -8   4  -3  198.08   55.09
   8   4   3   77.79   13.10
  -8   4  -3   92.59   18.20
  -9  -4  -3   73.69   39.90
   9   4   3   58.29   13.30
  -9   4  -3   65.59   47.00
  -9  -5   3   42.80   29.30
  -9   5   3   53.49   35.40
   8  -5  -3   28.40   20.20
  -8  -5   3   21.70   23.50
   8   5  -3   42.50   11.70
  -8   5   3   52.89   31.80
   8   5  -3   39.30   11.00
   7  -5  -3    3.60   14.40
  -7  -5   3   -8.90   15.70
   7  -5  -3  -18.80   12.20
   7   5  -3    3.80    6.70
  -7   5   3   20.90   23.00
   7   5  -3   -0.10    6.20
  -7   5   3    9.00    8.80
   6  -5  -3    8.70   11.30
   6  -5  -3   14.70   11.50
  -6  -5   3   -6.20   12.90
   6   5  -3    0.10    4.60
  -6   5   3   -2.80    6.50
  -6   5   3   -0.30   15.80
   6   5  -3    5.80    5.50
   5  -5  -3   10.50    8.60
  -5  -5   3    1.70   10.30
   5  -5  -3   -6.80    9.10
   5   5  -3   11.00    6.20
  -5   5   3   19.20    8.20
  -5   5   3   17.00   15.70
   5   5  -3   17.40    7.00
   4  -5  -3  153.28   18.40
  -4  -5   3  178.68   19.10
  -4  -5   3  165.08   23.50
   4  -5  -3  175.88   21.50
  -4   5   3  146.49   15.00
   4   5  -3  151.68   12.40
   4   5  -3  137.69   12.80
   3  -5  -3  121.09   15.00
   3  -5  -3  122.49   17.30
   3  -5  -3   99.59    7.50
  -3  -5   3  121.29   16.40
  -3  -5   3  117.99   18.60
   3   5  -3  148.69   19.50
  -3   5   3  133.19   13.50
  -3   5   3  124.19    7.50
   3   5  -3  113.49   12.20
   3   5  -3  112.59   15.50
  -2  -5   3  271.47   22.30
   2  -5  -3  270.37   25.10
   2  -5  -3  304.57   19.20
   2  -5  -3  288.77   15.80
  -2  -5   3  313.37   22.50
   2   5  -3  292.87   17.30
   2   5  -3  296.07   21.50
  -2   5   3  287.97   15.00
   2   5  -3  265.47   20.80
   2   5  -3  264.37   17.90
  -2   5   3  229.28   20.40
   2   5  -3  290.97   16.70
   1  -5  -3 1269.57   62.19
   1  -5  -3 1283.97   60.99
  -1  -5   3 1177.18   66.69
  -1  -5   3 1126.19   64.39
   1  -5  -3 1349.36   72.79
  -1   5   3 1236.78   59.99
   1   5  -3 1263.87   66.59
   1   5  -3 1199.08   60.29
   1   5  -3 1292.07   62.49
  -1   5   3 1376.66   65.79
   1   5  -3 1244.48   61.29
   0  -5  -3   28.20    9.00
   0  -5   3   33.70    8.30
   0  -5  -3   25.80    4.50
   0  -5   3   40.60   10.20
   0  -5  -3   28.20    5.70
   0   5  -3   26.00    4.80
   0   5  -3   26.80    4.80
   0   5   3   27.80    6.50
   0   5  -3   22.90    8.00
   0   5   3   30.60    4.70
   0   5  -3   22.50    4.80
  -1  -5  -3 2577.14  113.39
  -1  -5  -3 2429.16  116.99
   1  -5   3 2279.87  110.69
  -1  -5  -3 2485.05  113.49
  -1  -5  -3 2481.15  119.29
   1  -5   3 2336.87  119.99
  -1   5  -3 2340.17  118.79
   1   5   3 2205.38  114.59
  -1   5  -3 2391.56  112.29
   1   5   3 2231.78  112.79
   1   5   3 2303.87  111.99
  -1   5  -3 2368.66  111.69
  -2  -5  -3  949.40   56.29
   2  -5   3 1013.50   57.89
  -2  -5  -3  985.80   50.59
   2  -5   3 1000.30   69.19
  -2   5  -3  968.80   48.20
   2   5   3 1014.20   49.40
  -2   5  -3 1013.40   56.29
   2   5   3  967.30   54.29
  -2   5  -3 1006.30   48.10
   2   5   3  983.90   49.60
  -3  -5  -3 1333.47   76.29
   3  -5   3 1360.36   75.39
   3  -5   3 1369.66   83.59
  -3  -5  -3 1322.67   67.39
   3   5   3 1232.48   72.99
   3   5   3 1403.66   65.99
  -3   5  -3 1297.47   72.59
   3   5   3 1354.16   65.89
   4  -5   3 1885.71  106.49
  -4  -5  -3 1813.82  103.19
   4  -5   3 1893.01  101.29
  -4  -5  -3 1813.52   92.49
   4   5   3 1853.61   89.99
   4   5   3 1963.90   90.39
  -4   5  -3 1720.23   97.69
   5  -5   3   16.30   18.60
  -5  -5  -3  -18.60   13.00
  -5  -5  -3   15.80    8.80
  -5  -5  -3   15.20    7.70
   5   5   3   15.80    6.40
   5   5   3    6.60    4.60
  -5   5  -3   14.60    9.60
  -6  -5  -3  775.52   45.30
  -6  -5  -3  803.22   64.09
  -6   5  -3  754.72   49.00
   6   5   3  799.72   42.90
   6   5   3  757.42   41.60
  -7  -5  -3   43.80   11.40
  -7  -5  -3   34.60   36.40
   7   5   3   57.39   11.70
   7   5   3   36.80    8.40
  -7   5  -3   38.60   35.90
  -7   5  -3   49.70   15.00
  -8  -5  -3  150.38   44.90
   8   5   3  150.48   18.20
  -8   5  -3  167.78   25.10
  -8   5  -3  138.39   50.49
  -9  -5  -3   91.29   43.10
  -9   5  -3   77.19   51.89
   9   5   3  147.39   18.60
  -9  -6   3   68.89   33.10
  -9   6   3  107.49   44.90
  -8  -6   3  288.77   49.30
  -8   6   3  330.27   29.40
  -8   6   3  303.57   53.29
   8   6  -3  296.57   25.30
   8   6  -3  314.57   26.30
   7  -6  -3   46.00   18.40
   7   6  -3   40.40   11.10
  -7   6   3   55.79   35.00
  -7   6   3   46.60   14.20
   7   6  -3   37.60   11.00
   6  -6  -3 1036.30   60.79
  -6  -6   3 1068.99   71.89
  -6   6   3 1125.09   60.49
   6   6  -3 1022.60   57.09
   6   6  -3 1058.09   57.19
  -6   6   3 1044.60   76.09
  -5  -6   3  102.99   22.20
  -5  -6   3   65.09   15.50
  -5   6   3   90.99   15.10
   5   6  -3  128.79   14.50
   5   6  -3  124.59   15.60
  -4  -6   3 1228.08   71.29
  -4  -6   3 1253.77   72.19
   4   6  -3 1205.48   62.59
   4   6  -3 1211.88   61.99
  -4   6   3 1248.38   65.79
   4   6  -3 1151.08   60.79
   3  -6  -3  675.73   39.60
  -3  -6   3  747.13   44.30
   3  -6  -3  713.23   35.70
   3   6  -3  709.53   38.00
  -3   6   3  652.43   53.29
   3   6  -3  723.73   43.20
   3   6  -3  717.83   37.20
   3   6  -3  744.93   39.10
  -3   6   3  658.43   35.20
   3   6  -3  740.33   43.80
   2  -6  -3  135.69   10.90
   2  -6  -3  137.09   20.10
  -2  -6   3  129.99   18.60
   2  -6  -3  121.49   11.50
  -2  -6   3  142.29   19.70
   2   6  -3  170.78   20.40
   2   6  -3  144.49   14.20
   2   6  -3  138.89   10.40
  -2   6   3  153.48   19.00
   2   6  -3  113.69   11.60
  -2   6   3  134.49    8.70
   2   6  -3  114.79   18.10
  -1  -6   3 1910.71  103.39
   1  -6  -3 1960.20  104.49
   1  -6  -3 1956.40   96.99
  -1  -6   3 1949.60  100.89
   1  -6  -3 2004.80   96.39
   1   6  -3 1953.40   95.69
  -1   6   3 2063.49  101.19
   1   6  -3 2017.10   97.39
   1   6  -3 2051.79   96.59
  -1   6   3 2067.99   95.19
   1   6  -3 2129.39  103.49
   0  -6  -3   19.70    9.90
   0  -6  -3    8.90    4.60
   0  -6   3   14.60    7.20
   0  -6   3    4.70    7.30
   0   6  -3   16.60    9.00
   0   6  -3   29.40    5.20
   0   6   3    9.20    6.60
   0   6  -3    8.50    4.10
   1  -6   3  649.93   41.10
  -1  -6  -3  615.24   39.80
   1  -6   3  597.84   30.50
  -1  -6  -3  621.44   32.80
  -1  -6  -3  645.24   35.60
  -1  -6  -3  577.94   36.60
  -1   6  -3  603.24   38.90
  -1   6  -3  649.74   31.50
   1   6   3  596.54   34.90
  -1   6  -3  518.35   33.20
   1   6   3  555.24   34.70
   1   6   3  619.64   31.90
  -1   6  -3  623.44   31.80
  -2  -6  -3  343.47   27.90
  -2  -6  -3  399.76   28.40
  -2  -6  -3  373.76   22.40
   2   6   3  364.26   20.60
   2   6   3  361.16   25.90
  -2   6  -3  340.07   19.30
  -2   6  -3  365.86   27.70
  -2   6  -3  324.07   19.00
   2   6   3  338.07   20.90
  -3  -6  -3    4.20    7.90
   3  -6   3    3.70   16.50
  -3  -6  -3   18.50   13.00
   3   6   3    4.30    9.30
   3   6   3   14.90    5.10
   3   6   3   20.80    5.10
  -3   6  -3    0.40    7.10
  -4  -6  -3   37.40    8.00
  -4  -6  -3   21.70   15.10
  -4  -6  -3   17.10    9.40
   4  -6   3    9.10   18.40
   4   6   3   41.70    8.00
   4   6   3   31.30    6.30
  -4   6  -3   50.29   13.60
  -5  -6  -3   29.60   11.00
  -5  -6  -3   16.60   17.70
  -5  -6  -3   14.30    7.00
   5   6   3   24.70    6.20
  -5   6  -3   24.20   12.40
   5   6   3   21.20    7.10
  -6  -6  -3   -2.00   19.80
  -6  -6  -3   16.30    8.80
   6   6   3   17.00    6.40
   6   6   3   25.70    9.10
  -6   6  -3   26.40   12.60
  -7  -6  -3   10.60   10.10
  -7  -6  -3  -21.60   23.80
  -7   6  -3   13.50   14.10
   7   6   3    0.30    6.00
   7   6   3    1.70    7.60
  -8  -6  -3   46.50   36.70
   8   6   3   63.49   13.90
  -8   6  -3   29.80   16.30
  -9  -7   3   -0.40   31.90
  -8  -7   3   46.50   25.00
   8   7  -3   27.00   12.20
   8   7  -3   39.90   13.90
  -8   7   3   27.80   13.80
   7  -7  -3   -3.50   14.70
  -7  -7   3   13.60   21.60
  -7   7   3   -5.30   10.10
   7   7  -3   -5.40    7.10
   7   7  -3    0.20    7.30
   7   7  -3    0.40    7.10
  -6  -7   3   11.70   12.40
  -6  -7   3    5.10   17.10
   6   7  -3   10.10    7.00
   6   7  -3    1.10    6.40
  -6   7   3    7.20    9.50
   6   7  -3   -6.20    6.20
  -5  -7   3   12.40   14.40
  -5  -7   3   -6.80   10.00
   5   7  -3    2.60    6.20
   5   7  -3    3.10    6.20
   5   7  -3   11.70    7.50
  -5   7   3   -1.40    8.00
  -4  -7   3  168.28   22.80
  -4  -7   3  169.88   27.80
   4   7  -3  161.08   14.00
  -4   7   3  195.98   19.50
   4   7  -3  164.88   14.90
  -3  -7   3  204.08   36.30
  -3  -7   3  174.58   26.10
   3   7  -3  237.48   27.30
   3   7  -3  153.38   14.00
  -3   7   3  192.38   23.20
   3   7  -3  137.79   13.10
  -3   7   3  157.88   10.10
   3   7  -3  179.38   13.30
  -2  -7   3  454.55   33.70
   2  -7  -3  440.76   25.70
   2   7  -3  474.75   27.40
   2   7  -3  482.55   26.10
   2   7  -3  497.65   34.00
  -2   7   3  391.46   31.60
  -2   7   3  445.96   24.10
   2   7  -3  487.25   26.90
   1  -7  -3 1062.29   54.09
  -1  -7   3 1036.50   59.09
   1   7  -3 1103.69   53.99
  -1   7   3 1079.79   59.09
   1   7  -3 1066.29   61.59
   1   7  -3 1054.09   54.49
   1   7  -3 1046.70   53.29
  -1   7   3 1050.89   52.29
   0  -7  -3   46.80    8.30
   0  -7   3   64.09   12.80
   0   7   3   66.99   11.70
   0   7   3   47.80    6.70
   0   7  -3   45.70    7.30
   0   7  -3   50.59   12.80
   0   7  -3   60.59    9.00
   0   7  -3   44.00    6.70
  -1  -7  -3 1373.96   73.39
  -1  -7  -3 1415.56   70.39
   1  -7   3 1325.57   66.79
   1  -7   3 1415.66   72.09
  -1   7  -3 1468.65   68.29
  -1   7  -3 1434.96   77.09
   1   7   3 1306.47   70.59
   1   7   3 1463.65   68.39
   1   7   3 1399.16   69.89
  -1   7  -3 1200.78   70.19
  -1   7  -3 1427.86   67.89
  -2  -7  -3  431.06   32.00
   2  -7   3  351.86   21.40
  -2  -7  -3  416.16   25.90
   2   7   3  425.76   23.80
  -2   7  -3  414.46   22.40
   2   7   3  418.86   24.70
  -2   7  -3  403.36   22.30
  -2   7  -3  353.66   30.50
  -2   7  -3  428.26   27.10
   2   7   3  394.66   28.80
  -3  -7  -3  680.33   49.30
  -3  -7  -3  679.53   40.10
   3  -7   3  670.53   62.39
  -3   7  -3  694.93   34.90
   3   7   3  607.64   44.30
  -3   7  -3  739.73   34.60
   3   7   3  698.33   37.90
   3   7   3  667.93   37.20
  -3   7  -3  708.53   46.00
  -4  -7  -3  929.71   52.89
   4  -7   3  965.30   69.39
  -4  -7  -3 1026.30   65.19
  -4   7  -3  955.60   59.19
   4   7   3  922.61   49.60
   4   7   3  950.70   50.19
  -5  -7  -3  -19.20   13.80
  -5  -7  -3   14.50   13.50
   5   7   3    7.90    6.60
  -5   7  -3    3.60   11.40
   5   7   3    7.30    5.50
  -6  -7  -3  514.45   36.80
  -6  -7  -3  691.03   58.79
   6   7   3  520.95   32.70
   6   7   3  567.14   33.90
  -6   7  -3  583.74   44.20
  -7  -7  -3   52.09   13.60
  -7  -7  -3   78.59   34.80
   7   7   3   53.49   11.20
  -7   7  -3   41.80   17.30
   7   7   3   65.49   12.10
  -8  -7  -3  128.79   44.90
   8   7   3  112.19   16.10
  -8   7  -3   89.29   23.70
  -8  -8   3  169.28   42.90
   8   8  -3  274.87   23.40
  -8   8   3  183.98   26.50
  -7  -8   3   10.60   23.40
   7   8  -3   30.20   10.40
   7   8  -3   29.30   11.30
  -7   8   3   44.10   15.30
   7   8  -3   19.80   10.60
  -6   8   3  657.33   44.00
   6   8  -3  681.63   39.50
   6   8  -3  668.33   41.10
   6   8  -3  647.74   40.60
  -5  -8   3   35.30   19.50
   5   8  -3   56.49   11.70
  -5   8   3   66.89   15.70
   5   8  -3   53.69   11.70
   5   8  -3   54.79   12.00
  -4  -8   3  710.73   50.09
   4   8  -3  629.84   36.90
   4   8  -3  668.33   38.50
  -4   8   3  657.03   33.40
  -4   8   3  664.23   43.40
   4   8  -3  660.93   38.70
  -3  -8   3  534.55   38.70
   3   8  -3  446.96   27.80
   3   8  -3  421.66   26.20
  -3   8   3  390.46   32.70
  -3   8   3  456.25   23.40
   3   8  -3  415.16   27.10
  -2  -8   3  110.09   20.40
   2   8  -3  106.49   12.90
   2   8  -3  105.99   13.70
   2   8  -3   93.09   18.60
  -2   8   3   76.79   16.50
   2   8  -3   91.09   11.10
  -2   8   3   84.99    7.80
  -1  -8   3  858.51   49.90
   1  -8  -3  766.12   43.50
   1   8  -3  772.92   42.70
  -1   8   3  816.42   49.00
   1   8  -3  815.12   42.90
  -1   8   3  840.22   41.40
   1   8  -3  788.92   43.20
   1   8  -3  821.22   51.99
   0  -8  -3    0.70    4.20
   0  -8   3    0.20    8.80
   0   8  -3    8.70    4.40
   0   8   3    3.30    3.20
   0   8  -3   -1.70    7.70
   0   8   3   -0.50    6.80
   0   8  -3   -1.50    3.30
   1  -8   3  167.78   12.10
  -1  -8  -3  168.38   15.40
   1  -8   3  186.28   18.20
  -1  -8  -3  185.98   22.90
  -1   8  -3  152.88   18.80
  -1   8  -3  175.18   12.80
  -1   8  -3  219.88   27.30
   1   8   3  180.08   15.50
  -1   8  -3  149.79   12.30
   1   8   3  169.58   12.90
   1   8   3  160.88   18.20
   2  -8   3  163.98   11.40
  -2  -8  -3  209.98   16.60
  -2  -8  -3  151.88   22.90
  -2   8  -3  147.49   11.40
  -2   8  -3  151.68   11.60
   2   8   3  149.59   14.30
  -2   8  -3  148.59   18.80
  -2   8  -3  132.89   22.50
   2   8   3  149.49   19.80
   2   8   3  152.08   12.60
  -3  -8  -3    1.70   12.60
   3  -8   3    4.20    3.60
  -3  -8  -3   -1.10    5.40
   3  -8   3    1.90   21.80
  -3   8  -3   -0.40    3.10
  -3   8  -3    0.50    2.70
  -3   8  -3    8.30    7.10
  -3   8  -3  -10.70    7.60
   3   8   3    2.40    5.20
   3   8   3   -2.00    3.50
  -4  -8  -3   22.30   19.50
   4  -8   3    3.20   21.80
  -4   8  -3    5.80   10.60
   4   8   3   13.40    8.20
   4   8   3    1.50    4.30
  -5  -8  -3    5.60    7.30
  -5  -8  -3  -14.80   15.00
  -5   8  -3   -3.80   11.60
   5   8   3    4.70    5.10
   5   8   3    9.40    8.10
  -6  -8  -3   28.30   11.10
  -6  -8  -3   48.30   28.00
  -6   8  -3   25.70   16.70
   6   8   3   18.40    9.30
   6   8   3   27.50    8.30
  -7  -8  -3    1.90   28.70
   7   8   3   -1.20    8.20
  -7   8  -3    7.40   20.40
  -7  -9   3   -8.40   23.10
  -7   9   3   -8.30   11.10
   7   9  -3    1.50    9.30
  -6  -9   3   16.90   22.30
   6   9  -3    0.10    6.70
  -6   9   3   -1.20    9.20
   6   9  -3    1.70    7.30
   6   9  -3    5.60    8.90
  -5  -9   3   -1.60   17.30
   5   9  -3   -2.10    4.50
   5   9  -3    1.40    6.60
  -5   9   3   -0.70    9.90
   5   9  -3    3.10    6.90
  -4  -9   3   69.49   22.70
   4   9  -3   74.49   13.10
  -4   9   3   68.49    7.70
   4   9  -3   66.49   11.80
   4   9  -3   56.59   11.20
  -4   9   3   76.39   18.40
  -3  -9   3   89.69   24.40
  -3   9   3  117.89   22.50
   3   9  -3  122.19   15.80
   3   9  -3  121.89   14.40
  -3   9   3  121.79    9.40
   3   9  -3  142.89   16.30
  -2  -9   3  184.68   27.00
   2   9  -3  165.28   14.80
   2   9  -3  206.18   29.40
   2   9  -3  158.88   14.90
  -2   9   3  148.09   22.80
   2   9  -3  164.88   14.80
  -2   9   3  171.78   12.00
   1  -9  -3  595.14   40.00
  -1  -9   3  623.34   44.20
  -1   9   3  666.03   34.60
   1   9  -3  653.83   36.90
   1   9  -3  686.03   37.40
   1   9  -3  626.04   36.30
   1   9  -3  685.03   47.00
  -1   9   3  646.04   43.10
   0  -9  -3   -1.40    5.00
   0  -9   3    7.50   10.70
   0   9  -3   -6.00    6.10
   0   9  -3    4.00    4.50
   0   9  -3    1.00    4.90
   0   9  -3    7.80   10.30
   0   9   3   -4.60    7.70
   0   9   3    3.10    3.50
   1  -9   3  924.71   52.99
  -1  -9  -3  875.71   54.19
  -1  -9  -3  922.91   51.09
   1   9   3  900.31   50.39
  -1   9  -3  896.21   46.90
   1   9   3  968.00   47.50
  -1   9  -3  865.31   58.19
   1   9   3  869.41   50.09
  -1   9  -3  924.61   47.00
  -1   9  -3  799.92   51.49
  -2  -9  -3  396.46   28.60
  -2  -9  -3  462.05   39.00
   2  -9   3  410.16   30.30
   2   9   3  362.36   26.40
  -2   9  -3  400.46   23.10
  -2   9  -3  378.16   23.50
   2   9   3  420.66   24.90
   2   9   3  360.56   30.00
  -2   9  -3  430.66   31.00
  -2   9  -3  384.66   35.80
   3  -9   3  368.96   50.89
  -3  -9  -3  357.46   41.90
   3   9   3  343.77   25.00
  -3   9  -3  347.27   34.40
   3   9   3  336.37   23.30
  -3   9  -3  346.07   21.10
  -3   9  -3  359.46   20.30
  -3   9  -3  442.96   28.50
  -4  -9  -3  724.43   44.40
   4  -9   3  578.74   60.79
  -4  -9  -3  646.34   54.89
   4   9   3  663.93   38.70
   4   9   3  711.03   40.20
  -4   9  -3  695.83   66.19
  -5  -9  -3   -7.90   19.50
  -5  -9  -3    8.90    8.20
   5   9   3    7.90    8.10
  -5   9  -3   -6.80   13.40
   5   9   3   16.10    7.70
  -6  -9  -3  403.86   58.19
  -6  -9  -3  454.45   41.90
   6   9   3  332.37   29.10
   6   9   3  410.46   28.40
  -6   9  -3  285.97   40.20
  -7  -9  -3   52.39   38.10
   7   9   3   35.10   11.40
  -6 -10   3  515.25   62.49
   6  10  -3  526.55   34.80
  -6  10   3  542.25   41.40
  -5 -10   3   32.20   24.10
   5  10  -3   37.30   11.00
  -5  10   3   42.50   15.30
   5  10  -3   45.40   11.80
   5  10  -3   25.40   10.10
  -4 -10   3  469.15   46.30
  -4  10   3  498.95   26.60
   4  10  -3  498.85   32.70
  -4  10   3  450.65   27.00
   4  10  -3  523.15   31.80
  -4  10   3  481.95   39.00
   4  10  -3  473.35   32.10
  -3 -10   3  476.35   43.40
   3  10  -3  489.15   31.50
   3  10  -3  514.05   31.10
  -3  10   3  473.55   26.50
  -3  10   3  409.16   38.30
   3  10  -3  522.75   31.90
  -2 -10   3   91.59   22.20
   2  10  -3   77.89   13.00
  -2  10   3   64.59   18.50
   2  10  -3   70.89   12.20
  -2  10   3   82.09    9.90
   2  10  -3   75.39   12.70
  -1 -10   3  778.52   52.99
   1  10  -3  788.22   44.50
  -1  10   3  800.42   42.30
   1  10  -3  830.62   44.70
   1  10  -3  822.42   45.90
  -1  10   3  776.82   51.79
   0 -10  -3   14.60    8.00
   0 -10   3   12.10   13.40
   0  10  -3   32.80    7.60
   0  10  -3   34.10   16.00
   0  10   3   32.00    9.10
   0  10  -3   20.70    9.90
   0  10  -3   32.40    8.00
   0  10   3    6.60   11.00
  -1 -10  -3  320.57   31.30
  -1 -10  -3  297.57   25.30
   1  10   3  334.27   25.90
  -1  10  -3  305.77   44.00
  -1  10  -3  346.97   21.50
  -1  10  -3  313.77   20.60
  -1  10  -3  319.87   27.80
   1  10   3  276.97   20.60
  -2 -10  -3  131.29   25.70
  -2 -10  -3  112.59   16.00
   2 -10   3  134.29   22.30
   2  10   3  141.69   15.80
  -2  10  -3  122.39   11.10
  -2  10  -3   97.69   23.10
  -2  10  -3  119.59   11.90
   2  10   3  124.79   18.30
  -2  10  -3  167.68   22.60
  -3 -10  -3    2.90    7.40
   3 -10   3    2.30   27.20
  -3 -10  -3    3.70   16.80
  -3  10  -3    1.60    4.60
   3  10   3   -5.40    4.60
  -3  10  -3    1.00    8.70
   3  10   3   -0.50    6.80
  -3  10  -3   -2.40    3.20
  -3  10  -3    6.00   12.60
  -4 -10  -3   10.20   19.50
  -4 -10  -3    3.40    8.10
   4  10   3   35.60   11.00
   4  10   3   16.90    7.40
  -4  10  -3   23.90   17.70
  -5 -10  -3    0.80    9.40
  -5  10  -3   -2.80   13.90
   5  10   3   -1.90    7.60
   5  10   3   -4.40    5.20
  -6 -10  -3   11.50   28.30
   6  10   3   15.60   10.80
  -5 -11   3   -9.70   21.60
   5  11  -3    7.00    9.50
   5  11  -3   -3.00    8.20
   5  11  -3    2.20    8.10
  -5  11   3    5.50   13.10
  -4 -11   3   45.20   36.80
  -4  11   3   51.79    8.10
  -4  11   3   46.30    7.50
  -4  11   3   30.60   16.10
   4  11  -3   67.39   12.50
   4  11  -3   43.10   11.80
   4  11  -3   46.70   11.70
  -3 -11   3   23.50   21.70
   3  11  -3   30.00    9.40
   3  11  -3   28.50    8.70
   3  11  -3   38.80   10.50
  -3  11   3   36.70    8.50
  -3  11   3   42.00   20.90
  -2 -11   3   95.69   25.90
   2  11  -3  107.29   18.30
  -2  11   3  124.39   11.30
   2  11  -3  126.69   15.70
   2  11  -3  126.09   16.80
  -1 -11   3  304.07   37.20
  -1  11   3  302.07   20.00
   1  11  -3  304.57   22.40
   1  11  -3  258.67   21.20
  -1  11   3  328.37   33.10
   1  11  -3  318.97   25.60
   0 -11   3    6.80   15.40
   0  11  -3    2.20    5.10
   0  11   3  -11.50    9.00
   0  11   3   -3.30    3.80
   0  11  -3   -1.30    5.30
   0  11  -3    2.80   10.00
  -1 -11  -3  589.24   40.90
   1 -11   3  608.54   45.20
  -1  11  -3  649.14   36.30
  -1  11  -3  587.84   49.60
  -1  11  -3  603.34   35.00
  -1  11  -3  600.74   43.80
   1  11   3  639.74   43.20
   1  11   3  655.83   41.90
  -2 -11  -3  280.07   37.50
  -2 -11  -3  205.28   25.60
   2 -11   3  155.68   54.99
   2 -11   3  252.17   29.60
   2  11   3  240.78   23.10
  -2  11  -3  226.28   29.30
   2  11   3  227.98   18.50
  -2  11  -3  219.78   17.60
  -2  11  -3  205.98   16.30
  -2  11  -3  296.87   40.40
   3 -11   3  213.08   74.49
  -3 -11  -3  340.67   45.40
  -3 -11  -3  253.17   30.10
   3  11   3  275.67   22.10
  -3  11  -3  315.17   41.90
  -3  11  -3  318.07   20.50
  -3  11  -3  346.97   29.40
  -3  11  -3  293.07   18.40
   3  11   3  282.57   24.70
  -4 -11  -3  505.55   59.89
   4  11   3  496.25   33.70
  -4  11  -3  468.85   33.60
   4  11   3  438.06   30.60
  -5 -11  -3   38.30   28.70
   5  11   3   14.90   10.90
  -4 -12   3  268.27   44.00
  -4  12   3  234.58   18.20
   4  12  -3  265.57   23.70
   4  12  -3  224.58   24.90
  -4  12   3  237.28   34.00
   4  12  -3  275.97   24.60
  -4  12   3  263.27   17.60
  -3 -12   3  239.98   39.50
   3  12  -3  225.58   22.60
  -3  12   3  257.37   17.50
  -3  12   3  241.58   18.40
   3  12  -3  271.27   24.30
  -3  12   3  243.48   35.10
   3  12  -3  236.48   21.90
  -2 -12   3   39.20   22.60
   2  12  -3   46.50   13.40
  -2  12   3   34.60   18.30
   2  12  -3   34.40   10.10
   2  12  -3   31.70    9.00
  -2  12   3   41.90   12.60
  -1 -12   3  335.37   41.00
   1  12  -3  391.66   26.70
  -1  12   3  296.77   38.00
  -1  12   3  354.36   23.20
   1  12  -3  332.27   24.60
   1  12  -3  350.96   29.60
   0 -12   3   17.00   17.80
   0  12  -3   13.20    7.00
   0  12   3   -0.10    5.20
   0  12  -3    7.70   13.10
   0  12   3   10.60   14.30
   0  12  -3   14.10    6.60
   1 -12   3  116.19   25.60
  -1  12  -3   90.39   12.80
  -1  12  -3  121.19   23.40
  -1  12  -3  135.29   16.10
   1  12   3  140.49   16.90
   1  12   3  134.69   22.50
   2 -12   3   80.39   21.70
  -2 -12  -3   45.90   23.80
   2  12   3   29.30    9.50
  -2  12  -3   39.10    8.70
  -2  12  -3   31.40   15.60
  -2  12  -3   35.40    7.50
   2  12   3   58.99   15.70
  -3 -12  -3   -9.60   21.10
  -3  12  -3    2.10   12.50
  -3  12  -3    0.70    5.50
  -3  12  -3    4.70    4.10
   3  12   3   -5.50    6.50
   3  12   3  -10.40    7.50
 -10   0   4  169.68   47.10
  -9   0   4  -12.70   28.10
  -8   0   4 1082.79   76.69
  -7   0   4   46.80   21.20
  -6   0   4 1458.75   80.49
   6   0  -4 1420.76   68.89
   6   0  -4 1306.27   67.69
   5   0  -4  955.90   60.69
  -5   0   4 1074.99   60.29
   5   0  -4 1109.39   56.39
   5   0  -4  981.90   50.89
   4   0  -4  623.44   32.70
  -4   0   4  654.33   39.00
   4   0  -4  672.63   36.60
  -4   0   4  658.33   32.30
   4   0  -4  606.94   37.50
  -3   0   4 2998.20  137.49
   3   0  -4 2754.92  133.19
  -3   0   4 2734.13  135.79
   3   0  -4 2877.71  136.79
  -3   0   4 2759.22  132.79
   3   0  -4 2956.70  135.89
   2   0  -4  387.56   27.20
  -2   0   4  396.16   20.50
   2   0  -4  404.76   22.60
   2   0  -4  379.26   20.70
   2   0  -4  397.96   22.00
  -2   0   4  378.56   22.70
  -2   0   4  434.76   22.50
  -1   0   4  451.25   29.70
   1   0  -4  425.86   22.20
  -1   0   4  434.86   22.30
   1   0  -4  436.66   22.50
   1   0  -4  397.66   28.90
   0   0  -4  682.23   33.20
   0   0   4  706.73   33.60
   0   0   4  671.93   33.10
   0   0   4  672.73   41.50
   0   0  -4  658.63   33.10
   0   0  -4  652.63   40.90
  -1   0  -4   20.20   12.50
  -1   0  -4   24.40   10.80
   1   0   4   33.10    3.80
   1   0   4   26.60   12.90
   1   0   4   35.80   12.10
  -1   0  -4   32.20    3.70
   2   0   4 1766.42   93.89
   2   0   4 1812.12   82.19
  -2   0  -4 1800.92   96.99
  -2   0  -4 1749.03   91.29
  -2   0  -4 1794.22   82.09
   2   0   4 1642.24   92.19
   2   0   4 1675.43   81.69
  -3   0  -4   40.20    4.20
   3   0   4   33.90   13.00
   3   0   4   30.00   13.20
  -3   0  -4   29.70   10.60
  -3   0  -4   51.69   17.10
   3   0   4   34.50    4.20
   4   0   4  253.67   32.80
   4   0   4  322.27   37.10
   4   0   4  286.57   15.60
  -4   0  -4  404.36   46.00
  -4   0  -4  261.97   23.10
  -4   0  -4  292.47   16.10
   5   0   4   10.10    3.00
  -5   0  -4    4.70   17.10
  -5   0  -4   12.60    3.80
  -6   0  -4  124.69   32.50
  -6   0  -4  137.39   11.00
  -7   0  -4  133.29   12.60
  -7   0  -4  178.28   44.90
  -8   0  -4   54.99   36.50
  -9   0  -4  211.58   58.29
 -10  -1   4   17.70   31.50
 -10   1   4   34.40   37.60
  -9  -1   4    4.30   23.20
  -9   1   4  -18.70   23.00
  -8  -1   4   -0.10   19.50
  -8   1   4    6.20   20.20
  -7  -1   4   24.50   17.60
  -7   1   4   15.70   17.50
  -6  -1   4  168.18   25.50
   6  -1  -4  159.48   22.50
   6  -1  -4  126.69   11.50
   6  -1  -4  158.98   12.00
   6   1  -4  118.39   15.40
   6   1  -4  174.18   21.50
  -5  -1   4  146.59   22.30
   5  -1  -4  120.69   15.40
   5  -1  -4  124.19   18.20
   5   1  -4  109.49   15.90
  -5   1   4  124.39    8.40
   5   1  -4  116.19   10.00
   5   1  -4  137.69   11.00
   5   1  -4  128.49   19.50
  -5   1   4  126.49   20.10
  -4  -1   4  510.25   31.70
   4  -1  -4  482.75   27.90
   4  -1  -4  444.16   23.90
  -4  -1   4  481.85   24.20
   4  -1  -4  469.35   28.80
   4   1  -4  473.35   28.20
  -4   1   4  428.76   23.20
   4   1  -4  452.45   30.00
  -4   1   4  441.96   27.50
  -4   1   4  443.76   29.90
   4   1  -4  443.36   24.50
  -3  -1   4 3328.27  153.48
   3  -1  -4 3094.59  148.39
   3  -1  -4 3330.57  151.38
   3  -1  -4 3447.35  151.48
  -3  -1   4 3250.77  148.69
  -3   1   4 3119.29  151.68
  -3   1   4 2905.91  147.89
   3   1  -4 3126.19  151.28
  -3   1   4 3063.29  151.08
   3   1  -4 3133.49  152.78
  -2  -1   4  116.19   15.10
   2  -1  -4   96.19    8.10
  -2  -1   4   98.09    9.80
   2  -1  -4   93.19    7.50
  -2  -1   4   85.79    6.40
   2  -1  -4   91.99    8.20
   2   1  -4   90.29   11.00
   2   1  -4   66.39    8.50
  -2   1   4   83.19    9.70
  -1  -1   4 4369.16  201.08
   1  -1  -4 4239.28  200.68
   1  -1  -4 4581.34  202.48
  -1  -1   4 4192.28  202.68
  -1   1   4 4011.90  201.98
   1   1  -4 4429.76  205.68
  -1   1   4 4501.05  201.18
   1   1  -4 4306.57  201.08
   0  -1   4 1359.76   72.39
   0  -1   4 1421.36   66.59
   0   1   4 1398.06   67.09
   0   1   4 1361.36   65.89
   0   1  -4 1439.16   72.09
   0   1   4 1368.76   74.69
   0   1  -4 1425.96   66.59
   1  -1   4 2205.68  113.19
   1  -1   4 2158.98  104.59
  -1  -1  -4 2237.58   96.79
  -1  -1  -4 2286.37  106.89
  -1  -1  -4 2157.38   96.69
  -1  -1  -4 2164.98  107.49
  -1   1  -4 1958.60  102.69
   1   1   4 1866.61   96.49
   1   1   4 1886.71  104.49
  -1   1  -4 1873.21   96.79
  -2  -1  -4 3341.77  171.38
   2  -1   4 3349.17  169.68
  -2  -1  -4 3586.74  162.58
   2  -1   4 3404.86  175.48
  -2  -1  -4 3336.37  173.58
   2  -1   4 3523.85  161.58
  -2   1  -4 3285.87  176.98
   2   1   4 3243.68  161.08
   2   1   4 3588.94  161.48
  -2   1  -4 3631.84  160.98
  -2   1  -4 3712.33  168.38
   2   1   4 3530.25  171.28
   3  -1   4   64.49   14.80
  -3  -1  -4   50.69    5.10
   3  -1   4   56.49   17.50
   3  -1   4   47.50    5.20
  -3  -1  -4   68.49   19.80
  -3  -1  -4   48.00   14.10
   3   1   4   60.79    5.00
  -3   1  -4   57.39    4.20
   3   1   4   43.40   14.40
  -3   1  -4   79.89   20.80
  -3   1  -4   93.99   13.60
  -4  -1  -4 2482.55  127.59
   4  -1   4 2064.89  118.29
   4  -1   4 2439.06  107.39
   4  -1   4 2235.88  122.19
  -4  -1  -4 2248.38  117.59
  -4  -1  -4 2329.87  108.09
   4   1   4 2189.78  120.49
  -4   1  -4 2319.27  129.59
  -4   1  -4 2140.29  112.69
  -4   1  -4 2258.67  106.69
   4   1   4 2301.87  107.29
  -5  -1  -4  421.96   52.09
   5  -1   4  389.36   19.40
   5  -1   4  360.26   24.00
  -5  -1  -4  380.26   21.30
   5  -1   4  369.56   35.00
  -5   1  -4  333.77   19.60
  -5   1  -4  470.75   56.89
  -5   1  -4  332.37   25.40
  -6  -1  -4  341.67   20.90
  -6  -1  -4  394.56   55.19
   6  -1   4  295.37   24.30
  -6   1  -4  324.67   53.89
  -6   1  -4  332.77   19.10
  -7  -1  -4  289.17   49.20
  -7  -1  -4  295.77   20.40
  -7   1  -4  254.67   51.49
  -7   1  -4  281.17   18.10
  -8  -1  -4   13.80    7.10
  -8  -1  -4   -8.30   29.70
  -8   1  -4   -4.00   32.50
  -9  -1  -4  105.99   43.70
  -9   1  -4  104.49   48.90
 -10  -2   4  129.49   39.40
 -10   2   4  162.68   47.70
  -9  -2   4   -9.30   23.90
  -9   2   4   27.60   29.10
  -8  -2   4  735.73   60.69
  -8   2   4  731.83   61.69
  -7  -2   4   19.20   17.50
   7   2  -4   38.60   10.50
  -7   2   4   -3.60   17.60
   7   2  -4   30.10    8.30
   6  -2  -4  729.73   48.70
  -6  -2   4  836.72   54.39
   6   2  -4  803.62   43.10
  -6   2   4  807.72   52.99
   6   2  -4  811.52   42.30
   5  -2  -4  827.02   42.20
   5  -2  -4  868.01   49.10
  -5   2   4  838.92   41.30
   5   2  -4  850.41   44.10
  -5   2   4  840.22   47.50
   5   2  -4  856.51   51.59
  -5   2   4  873.51   51.89
   5   2  -4  905.21   45.40
   4  -2  -4  168.88   15.60
  -4  -2   4  219.68   20.20
   4  -2  -4  187.78   11.70
   4  -2  -4  213.48   16.00
   4  -2  -4  216.78   16.70
   4   2  -4  285.47   30.50
  -4   2   4  197.28   18.00
  -4   2   4  189.08   11.10
   4   2  -4  200.68   13.10
  -4   2   4  205.58   16.00
   3  -2  -4 1091.39   54.39
   3  -2  -4 1149.29   56.89
  -3  -2   4 1231.08   61.09
   3  -2  -4 1290.07   58.79
  -3  -2   4 1188.48   55.59
   3   2  -4 1074.59   59.69
   3   2  -4 1163.28   55.89
  -3   2   4 1099.79   54.69
  -3   2   4 1127.29   58.09
  -3   2   4 1007.10   57.29
  -2  -2   4   92.99   12.10
  -2  -2   4   73.59   11.00
   2  -2  -4   86.19   10.60
  -2  -2   4   72.39    5.70
   2  -2  -4   67.39    4.60
  -2   2   4   46.10    5.60
   2   2  -4   38.80    8.00
   2   2  -4   54.99    6.50
  -2   2   4   36.50    7.20
   2   2  -4   51.69    7.90
  -1  -2   4 1045.70   57.49
  -1  -2   4 1083.29   55.59
   1  -2  -4  980.50   54.89
   1  -2  -4 1076.09   52.39
  -1  -2   4 1080.19   53.19
   1   2  -4 1168.88   53.59
  -1   2   4 1231.88   52.79
   1   2  -4 1145.79   56.89
  -1   2   4 1117.89   55.59
   0  -2  -4  626.34   38.70
   0  -2  -4  674.03   33.00
   0  -2   4  666.33   32.40
   0  -2   4  639.24   37.70
   0   2  -4  630.64   32.40
   0   2   4  631.24   36.70
   0   2  -4  652.23   36.70
   0   2   4  683.73   33.60
  -1  -2  -4  111.99   17.30
   1  -2   4   99.89   14.00
   1  -2   4   69.29    5.70
  -1  -2  -4   84.59    6.20
  -1  -2  -4   79.59    6.30
   1   2   4   74.69    5.90
   1   2   4   86.69   13.50
   1   2   4   69.29    5.30
  -1   2  -4   73.59    5.90
  -1   2  -4   86.59   11.90
   2  -2   4   39.70   17.30
   2  -2   4   52.19    4.80
   2  -2   4   61.09   12.70
  -2  -2  -4   56.99    6.10
  -2  -2  -4   69.19   16.20
  -2  -2  -4   44.50   14.40
   2   2   4   33.30   11.00
  -2   2  -4   38.00    4.50
   2   2   4   34.40    4.60
   2   2   4   41.40    4.90
  -2   2  -4   63.19   11.30
  -3  -2  -4   28.10   12.60
   3  -2   4   10.90   13.80
  -3  -2  -4    5.60   11.00
   3  -2   4   15.90   10.00
  -3   2  -4   39.40    3.30
   3   2   4   51.19   14.50
   3   2   4   58.69    6.10
  -3   2  -4   51.09   20.00
   3   2   4   43.40    5.60
  -3   2  -4   31.40    8.80
  -4  -2  -4  401.46   44.70
   4  -2   4  316.17   17.60
   4  -2   4  355.16   34.80
   4  -2   4  306.57   28.90
  -4  -2  -4  328.17   19.20
  -4  -2  -4  360.86   37.30
   4   2   4  336.87   18.40
   4   2   4  346.67   30.60
  -4   2  -4  324.17   46.00
  -4   2  -4  326.97   16.60
  -4   2  -4  297.97   23.30
  -5  -2  -4    1.80   13.80
   5  -2   4   -9.40   11.80
  -5  -2  -4   18.10    5.00
   5  -2   4    8.00    5.60
  -5   2  -4   46.60   23.10
   5   2   4   22.10    4.70
  -5   2  -4   16.30    8.00
   6  -2   4  204.88   32.20
  -6  -2  -4  170.38   35.50
   6  -2   4  223.68   20.70
  -6  -2  -4  236.38   17.30
  -6   2  -4  253.57   47.80
  -6   2  -4  238.88   21.20
   6   2   4  256.97   15.60
  -7  -2  -4  184.38   40.60
  -7  -2  -4  284.37   20.40
  -7   2  -4  232.68   52.49
  -8  -2  -4   29.40   32.10
  -8  -2  -4   40.40   10.00
  -9  -2  -4  213.68   56.19
  -9   2  -4  209.48   58.19
 -10  -3   4   51.79   32.40
 -10   3   4    8.40   31.30
  -9  -3   4   -0.60   24.20
  -9   3   4   -9.40   24.70
  -8  -3   4    8.10   19.40
  -8   3   4   12.50   22.20
  -7  -3   4   -5.30   13.90
  -7   3   4   -7.50   16.50
   7   3  -4   -7.50    4.70
   7   3  -4  -13.60    5.20
   6  -3  -4   83.49   17.10
  -6  -3   4  128.79   24.90
  -6   3   4  173.68   28.50
   6   3  -4   96.19   12.30
   6   3  -4  106.29   13.80
  -6   3   4   96.39   16.00
  -5  -3   4   91.49   19.00
   5  -3  -4  108.59   14.60
   5  -3  -4   79.19   13.00
   5  -3  -4   59.99   14.30
   5   3  -4  112.29   13.90
   5   3  -4  124.39   13.40
  -5   3   4   83.29   18.90
   4  -3  -4  209.38   13.20
   4  -3  -4  226.68   18.80
   4  -3  -4  260.87   17.60
  -4  -3   4  249.48   22.50
   4   3  -4  241.08   16.60
   4   3  -4  230.78   16.90
  -4   3   4  268.37   18.60
  -4   3   4  235.68   12.90
   4   3  -4  230.38   21.10
  -4   3   4  215.88   19.90
  -3  -3   4 1521.35   78.99
   3  -3  -4 1587.54   73.69
  -3  -3   4 1622.04   81.79
   3  -3  -4 1650.63   79.39
  -3   3   4 1484.55   74.79
   3   3  -4 1587.54   77.69
   3   3  -4 1570.04   80.79
  -3   3   4 1613.94   78.99
   3   3  -4 1535.25   76.09
  -2  -3   4   16.10    3.90
   2  -3  -4    3.80    4.80
   2  -3  -4   10.00    2.10
  -2  -3   4   -0.70    4.70
  -2  -3   4   16.20    6.20
  -2   3   4    1.30    1.60
   2   3  -4   -3.00    4.30
   2   3  -4    4.20    4.70
  -2   3   4    7.10    4.90
  -1  -3   4 2728.63  139.49
   1  -3  -4 2858.51  138.69
   1  -3  -4 2921.11  135.99
  -1  -3   4 3070.29  137.09
  -1  -3   4 2913.81  141.89
   1   3  -4 2912.71  140.79
   1   3  -4 3115.39  137.29
  -1   3   4 2861.41  135.89
  -1   3   4 2878.61  139.99
   0  -3   4 1410.56   65.09
   0  -3  -4 1343.57   64.59
   0  -3   4 1365.46   70.89
   0  -3  -4 1399.26   65.79
   0  -3  -4 1264.27   69.09
   0   3  -4 1366.36   69.59
   0   3   4 1252.17   66.39
   0   3   4 1401.56   66.49
   0   3  -4 1403.56   65.19
   0   3   4 1345.67   64.39
   1  -3   4 2216.48   97.29
  -1  -3  -4 2204.88   97.99
  -1  -3  -4 2217.78   98.19
   1  -3   4 2164.98  104.79
  -1  -3  -4 2189.98  105.19
   1   3   4 1916.41  101.59
   1   3   4 1982.70   97.29
   1   3   4 1930.51   97.69
  -1   3  -4 1951.30  102.39
  -1   3  -4 1909.61   97.19
   2  -3   4 4515.25  212.78
  -2  -3  -4 4558.94  205.28
  -2  -3  -4 4471.55  214.68
   2  -3   4 4492.55  203.78
   2  -3   4 4121.19  223.38
  -2   3  -4 4394.36  210.28
   2   3   4 4141.19  204.48
   2   3   4 4199.98  211.18
   2   3   4 4499.55  204.68
  -2   3  -4 4463.25  204.18
   3  -3   4  151.28   29.70
   3  -3   4   99.29   17.60
  -3  -3  -4  130.69   15.30
  -3  -3  -4  106.09   22.20
   3   3   4  102.89    8.70
   3   3   4  136.29   21.80
  -3   3  -4   97.49   14.40
   3   3   4  120.59    8.60
  -4  -3  -4 2318.67  122.59
   4  -3   4 2273.27  126.49
  -4  -3  -4 2352.76  133.19
   4  -3   4 2348.27  120.19
  -4  -3  -4 2417.66  111.19
   4   3   4 2290.27  109.99
   4   3   4 2369.16  109.69
   4   3   4 2399.46  122.09
  -4   3  -4 2089.39  132.99
  -4   3  -4 2108.79  114.99
   5  -3   4  185.48   32.60
  -5  -3  -4  229.98   37.20
  -5  -3  -4  218.38   16.00
  -5   3  -4  209.08   20.40
  -5   3  -4  158.28   37.40
   5   3   4  235.78   15.80
   5   3   4  235.08   14.70
   6  -3   4  326.27   40.30
  -6  -3  -4  504.85   57.29
  -6  -3  -4  366.36   25.20
   6   3   4  410.46   24.60
  -6   3  -4  347.37   57.29
  -6   3  -4  393.46   29.20
   6   3   4  398.56   23.10
  -7  -3  -4  219.68   47.50
  -7  -3  -4  206.98   17.50
   7  -3   4  149.49   33.70
  -7   3  -4  140.29   20.60
  -7   3  -4  121.99   41.20
  -8  -3  -4   10.30    8.00
  -8  -3  -4  -24.70   24.00
  -9  -3  -4  143.19   50.09
  -9   3  -4   96.29   51.29
 -10  -4   4  102.99   41.10
 -10   4   4   72.49   41.20
  -9  -4   4   26.80   26.60
  -9   4   4   29.10   32.80
  -8  -4   4  544.05   52.49
   8   4  -4  481.45   38.00
  -8   4   4  452.55   56.49
  -7  -4   4   60.49   24.00
   7  -4  -4   54.59   19.00
   7   4  -4   83.49   14.80
  -7   4   4   78.49   16.20
   7   4  -4   60.09   14.00
  -7   4   4   64.79   25.60
  -6  -4   4  596.94   45.80
   6  -4  -4  577.74   38.70
   6  -4  -4  539.05   38.50
   6   4  -4  613.34   34.00
  -6   4   4  625.04   37.80
   6   4  -4  587.34   34.60
  -6   4   4  495.05   44.50
   5  -4  -4  992.50   58.69
   5  -4  -4  962.60   56.79
  -5  -4   4 1111.19   64.79
  -5   4   4 1046.10   63.29
  -5   4   4 1111.59   58.09
   5   4  -4 1110.89   56.09
   5   4  -4 1075.59   54.79
   4  -4  -4  187.48   17.30
   4  -4  -4  193.98   19.10
   4   4  -4  176.98   13.20
   4   4  -4  155.28   13.90
   4   4  -4  203.08   20.20
  -4   4   4  195.68   16.60
   3  -4  -4 1593.24   85.59
   3  -4  -4 1662.03   79.69
   3  -4  -4 1698.53   87.79
  -3  -4   4 1710.53   86.29
  -3  -4   4 1720.63   88.39
   3   4  -4 1737.03   85.19
  -3   4   4 1654.13   85.59
  -3   4   4 1786.02   80.59
   3   4  -4 1687.23   82.39
   3   4  -4 1715.73   83.79
  -2  -4   4  166.88   18.70
  -2  -4   4  159.08   18.70
   2  -4  -4  143.09   13.50
   2  -4  -4  144.99    9.40
   2   4  -4  151.88   14.80
  -2   4   4  145.19   14.30
  -2   4   4  176.38    9.60
   2   4  -4  168.18   14.70
   2   4  -4  198.18   11.80
  -1  -4   4 1519.05   77.29
   1  -4  -4 1534.45   75.49
   1  -4  -4 1539.15   73.19
  -1  -4   4 1515.55   79.79
  -1  -4   4 1590.94   73.99
   1   4  -4 1482.65   72.89
   1   4  -4 1585.14   74.29
   1   4  -4 1541.65   78.59
  -1   4   4 1522.15   77.59
  -1   4   4 1545.45   72.79
   0  -4  -4  507.85   26.70
   0  -4   4  409.66   30.90
   0  -4  -4  503.45   25.70
   0  -4   4  505.25   25.60
   0   4  -4  472.55   30.60
   0   4   4  498.25   26.00
   0   4  -4  487.35   25.70
   0   4   4  504.95   27.70
  -1  -4  -4    6.20    8.30
   1  -4   4    8.10    2.50
  -1  -4  -4    5.00    3.10
   1  -4   4    7.40    6.60
  -1  -4  -4   12.80    3.30
  -1   4  -4    4.70    5.90
   1   4   4   12.50    3.10
   1   4   4    0.70    6.20
   1   4   4    7.80    3.80
  -1   4  -4    8.40    2.90
   2  -4   4  159.68   31.30
   2  -4   4  142.99    8.70
   2  -4   4  193.78   22.10
  -2  -4  -4  166.68   23.10
   2   4   4  131.39   10.20
  -2   4  -4  165.88   19.20
   2   4   4  162.08   19.80
  -2   4  -4  139.09    9.10
   2   4   4  123.69    9.40
  -3  -4  -4   17.90   12.40
   3  -4   4   18.50   11.50
  -3  -4  -4   29.70    5.50
   3  -4   4   40.80   20.10
   3   4   4   81.59   20.20
  -3   4  -4   76.29   13.30
   4  -4   4  207.88   34.20
  -4  -4  -4  195.28   31.30
  -4  -4  -4  210.78   14.80
   4  -4   4  222.28   28.30
  -4   4  -4  185.98   22.10
   4   4   4  194.88   13.10
   4   4   4  167.68   13.40
   5  -4   4    8.40   14.60
  -5  -4  -4   11.90    5.40
  -5  -4  -4   29.10   19.20
  -5  -4  -4   -3.00   13.00
  -5   4  -4    6.30    8.50
   5   4   4    4.10    4.40
   5   4   4   13.00    4.60
  -6  -4  -4  252.57   42.40
  -6  -4  -4  263.67   19.40
   6  -4   4  223.58   34.80
   6   4   4  229.18   16.10
  -6   4  -4  174.18   23.10
   6   4   4  212.38   17.30
  -6   4  -4  259.57   52.69
  -7  -4  -4  159.78   20.40
  -7  -4  -4  144.19   55.29
   7  -4   4  128.09   18.40
  -7   4  -4  176.38   51.89
   7   4   4  146.59   13.30
  -7   4  -4  110.59   19.50
   7   4   4  167.18   15.80
  -8  -4  -4   40.60   32.70
  -8  -4  -4   33.40   10.80
   8   4   4   45.00   11.10
  -8   4  -4   38.40   13.90
  -9  -4  -4  160.68   50.29
  -9   4  -4  158.18   59.39
   9   4   4  210.08   21.40
  -9  -5   4  -26.80   20.90
  -9   5   4   11.90   29.80
  -8  -5   4   25.70   22.30
   8  -5  -4   -0.30   18.20
   8   5  -4   -1.50    7.20
  -8   5   4   28.60   27.00
  -8   5   4   -4.10   10.40
   8   5  -4    0.50    7.40
   7  -5  -4  -19.30   11.80
  -7  -5   4  -12.70   14.20
   7  -5  -4  -15.40   12.10
  -7   5   4    5.40    9.20
   7   5  -4   -3.40    7.10
  -7   5   4   -5.80   22.00
   7   5  -4    1.50    7.20
   6  -5  -4   37.80   12.30
   6  -5  -4   50.39   14.80
  -6  -5   4   63.49   20.40
   6   5  -4   51.39    9.70
  -6   5   4   44.50   12.40
   6   5  -4   46.40   10.00
  -6   5   4   35.00   19.60
  -5  -5   4   41.50   16.10
   5  -5  -4   62.29   15.00
   5   5  -4   37.50   11.60
  -5   5   4   64.79   12.90
   5   5  -4   41.30   14.30
   4  -5  -4  216.88   20.20
  -4  -5   4  260.87   31.00
  -4  -5   4  252.17   21.30
   4  -5  -4  245.38   22.60
   4   5  -4  220.48   19.00
  -4   5   4  264.67   22.90
   4   5  -4  222.28   17.30
   4   5  -4  247.88   16.80
   3  -5  -4 1025.40   51.49
  -3  -5   4 1041.40   59.29
   3  -5  -4 1004.50   56.99
   3  -5  -4 1093.99   61.09
  -3  -5   4 1028.50   60.49
  -3   5   4 1022.50   57.99
  -3   5   4 1159.98   51.69
   3   5  -4 1152.58   56.09
   3   5  -4 1053.49   57.89
   3   5  -4 1096.39   59.59
  -2  -5   4   13.10    8.50
   2  -5  -4   18.10    9.40
   2  -5  -4   27.70    6.70
  -2  -5   4   22.50    9.10
   2  -5  -4   17.80    3.50
   2   5  -4   19.40    5.00
  -2   5   4   19.10    3.20
   2   5  -4   15.40    4.50
  -2   5   4   10.70    7.00
   2   5  -4   15.70    7.60
   2   5  -4   21.70    4.60
   2   5  -4   19.30    7.90
   1  -5  -4 2442.86  115.49
  -1  -5   4 2195.88  119.19
   1  -5  -4 2420.26  123.49
  -1  -5   4 2385.36  122.49
   1   5  -4 2461.05  114.89
   1   5  -4 2504.05  121.89
   1   5  -4 2488.75  116.19
  -1   5   4 2461.15  114.69
  -1   5   4 2590.34  120.69
   0  -5   4  339.67   30.60
   0  -5  -4  385.46   21.40
   0  -5   4  376.56   25.00
   0  -5  -4  359.36   23.30
   0   5   4  369.66   20.50
   0   5  -4  397.86   20.60
   0   5  -4  370.66   26.80
   0   5  -4  404.06   21.30
   0   5  -4  373.26   21.90
   0   5   4  401.66   23.70
  -1  -5  -4 1349.16   62.49
  -1  -5  -4 1385.76   62.69
  -1  -5  -4 1308.87   67.89
   1  -5   4 1291.17   70.29
  -1   5  -4 1238.08   67.89
   1   5   4 1141.99   64.19
   1   5   4 1185.98   62.09
   1   5   4 1222.18   61.09
  -1   5  -4 1200.18   60.79
  -2  -5  -4 2857.31  143.89
  -2  -5  -4 2835.42  136.29
  -2  -5  -4 2887.31  136.09
   2  -5   4 2886.91  144.69
   2   5   4 2846.82  134.89
   2   5   4 2661.63  140.09
  -2   5  -4 2922.31  142.39
   2   5   4 3099.89  140.89
  -2   5  -4 2711.03  133.69
  -3  -5  -4   55.79    8.00
  -3  -5  -4   46.80   17.60
   3  -5   4   92.39   28.80
   3  -5   4   50.39   14.60
  -3   5  -4   66.99   17.10
   3   5   4   48.30    7.80
   3   5   4   60.19    8.00
   3   5   4   68.49   17.30
  -4  -5  -4 1912.81   95.69
  -4  -5  -4 1788.42  103.69
   4  -5   4 1741.83  107.79
   4   5   4 1826.22   88.69
  -4   5  -4 1782.22   96.09
   4   5   4 1830.32   88.69
  -5  -5  -4  137.49   31.30
  -5  -5  -4  159.68   15.10
  -5   5  -4  161.08   22.80
   5   5   4  158.38   12.80
   5   5   4  175.68   14.30
  -6  -5  -4  375.46   26.60
  -6  -5  -4  326.47   50.09
   6   5   4  332.87   22.70
  -6   5  -4  343.67   30.40
   6   5   4  403.26   24.60
  -7  -5  -4  168.78   39.30
  -7  -5  -4  183.78   22.60
   7   5   4  193.08   15.90
   7   5   4  211.48   27.40
  -7   5  -4  152.78   23.60
  -8  -5  -4   15.70   30.70
  -8  -5  -4   17.10    9.70
  -8   5  -4   10.00   13.40
   8   5   4    2.90    9.20
  -9  -5  -4   83.69   43.60
   9   5   4  133.19   19.30
  -9  -6   4    3.00   25.60
  -9   6   4   55.79   38.50
  -8  -6   4  588.34   56.59
   8   6  -4  471.45   35.00
  -8   6   4  559.44   39.60
  -8   6   4  471.45   64.59
   8   6  -4  516.05   35.60
   7  -6  -4   31.70   15.60
  -7   6   4   32.80   27.30
   7   6  -4   31.80   10.40
   7   6  -4   31.20   10.80
  -7   6   4   38.90   13.70
  -6  -6   4  686.53   53.99
   6   6  -4  691.83   41.30
  -6   6   4  756.62   45.00
   6   6  -4  677.23   40.70
  -5  -6   4  559.74   44.30
  -5  -6   4  504.75   38.10
   5   6  -4  556.24   33.60
  -5   6   4  616.84   37.70
   5   6  -4  604.84   34.80
  -4  -6   4  289.87   32.40
  -4  -6   4  241.58   38.70
   4   6  -4  201.68   17.20
   4   6  -4  225.88   16.90
   4   6  -4  241.98   21.30
  -4   6   4  218.88   20.50
  -3  -6   4  897.11   51.99
  -3  -6   4  859.81   50.69
   3  -6  -4  814.62   41.80
   3   6  -4  868.61   53.59
   3   6  -4  819.82   45.20
   3   6  -4  839.62   44.30
   3   6  -4  860.91   49.40
  -3   6   4  776.42   48.60
   3   6  -4  855.21   43.40
  -2  -6   4  153.08   19.70
  -2  -6   4  131.89   20.30
   2  -6  -4  111.79   13.10
   2  -6  -4  116.09    9.00
   2   6  -4  163.58   19.80
   2   6  -4   97.29    9.20
  -2   6   4  112.39    7.90
   2   6  -4  144.19   15.40
   2   6  -4  123.39   11.80
   1  -6  -4  634.24   33.40
  -1  -6   4  599.54   40.70
   1  -6  -4  675.13   42.50
   1  -6  -4  619.54   34.30
  -1  -6   4  590.74   37.90
  -1   6   4  701.33   43.10
   1   6  -4  622.54   32.50
   1   6  -4  660.43   40.70
  -1   6   4  635.64   32.10
   1   6  -4  592.14   33.30
   1   6  -4  667.33   34.90
   0  -6   4  195.68   17.50
   0  -6  -4  194.38   13.50
   0  -6  -4  195.18   14.00
   0  -6   4  198.48   24.30
   0  -6  -4  255.07   26.90
   0   6  -4  171.48   12.60
   0   6  -4  185.88   12.80
   0   6   4  192.58   12.30
   0   6  -4  213.68   20.50
   0   6  -4  200.48   13.90
  -1  -6  -4   -1.60    2.80
  -1  -6  -4    1.00    7.60
  -1  -6  -4   -2.90    6.30
   1  -6   4    1.90    2.20
  -1   6  -4    9.90    3.40
   1   6   4    2.00    4.00
  -1   6  -4   10.10    4.20
   1   6   4    6.00    3.20
   1   6   4    0.70    6.00
  -1   6  -4    4.10    6.80
  -2  -6  -4   55.19   13.50
  -2  -6  -4   65.29   16.40
  -2  -6  -4   70.49   10.50
  -2   6  -4   59.09   13.50
   2   6   4   51.79    7.20
  -2   6  -4   63.89    7.50
  -2   6  -4   60.29    8.70
   2   6   4   39.00   11.20
   2   6   4   75.89    9.90
   3  -6   4  112.09   33.10
  -3  -6  -4   94.19   21.20
  -3  -6  -4   79.19   15.50
   3   6   4   46.30   14.00
   3   6   4   73.29   10.00
  -3   6  -4   81.39   16.00
  -3   6  -4   62.39    6.30
   3   6   4   73.59    9.30
  -3   6  -4   60.99    6.00
   4  -6   4   64.99   26.90
  -4  -6  -4   86.09   12.60
  -4  -6  -4   67.99   15.40
  -4  -6  -4  121.09   26.00
   4   6   4   92.19   10.80
  -4   6  -4   67.29   15.50
   4   6   4   79.39   10.70
  -5  -6  -4    1.20    5.80
  -5  -6  -4  -22.10   14.50
  -5  -6  -4    1.90    8.70
  -5   6  -4    4.20   10.10
   5   6   4   -1.80    6.00
   5   6   4    3.90    4.30
  -6  -6  -4  127.49   33.60
  -6  -6  -4  133.49   18.20
  -6  -6  -4   81.59   27.80
  -6  -6  -4   65.99   15.20
   6   6   4  110.89   14.10
  -6   6  -4   93.59   19.00
   6   6   4   94.39   12.20
  -7  -6  -4   93.99   35.80
  -7  -6  -4  104.39   17.30
  -7   6  -4   73.59   20.00
   7   6   4  111.19   17.00
   7   6   4  129.79   16.30
  -8  -6  -4    1.20   30.90
  -8  -6  -4   25.40   11.10
   8   6   4   28.70   10.90
  -8   6  -4   -3.00   13.80
  -9  -7   4  -26.50   23.50
  -8  -7   4    9.30   23.30
  -8   7   4   15.40   13.00
   8   7  -4    2.30    8.30
   8   7  -4    9.20   10.20
  -7  -7   4    1.90   20.00
   7   7  -4   -3.80    6.90
  -7   7   4   -9.00    9.20
   7   7  -4   -1.90    8.10
  -6  -7   4   57.49   22.30
  -6   7   4   62.79   15.10
  -5  -7   4   66.69   21.60
  -5  -7   4   80.69   18.50
   5   7  -4   69.29   12.30
   5   7  -4   65.19   11.40
  -5   7   4   88.69   16.50
   5   7  -4   87.39   13.10
  -4  -7   4  214.48   27.00
  -4  -7   4  307.47   36.10
  -4   7   4  225.58   22.30
   4   7  -4  227.68   26.90
   4   7  -4  264.47   17.90
  -4   7   4  257.97   14.70
   4   7  -4  197.98   18.00
  -3  -7   4  898.51   54.59
   3   7  -4  857.11   46.20
   3   7  -4  830.02   46.90
  -3   7   4  720.83   50.49
   3   7  -4  900.31   45.20
   3   7  -4 1020.10   54.49
  -3   7   4  867.91   42.70
  -2  -7   4   13.80   12.60
   2  -7  -4   19.00    4.90
   2   7  -4   31.90    6.50
   2   7  -4   34.20    6.50
  -2   7   4   23.20    4.30
  -2   7   4   32.20   11.90
   2   7  -4   36.00    8.10
   2   7  -4   40.60   12.10
   1  -7  -4 1483.85   72.99
  -1  -7   4 1479.85   78.39
   1   7  -4 1413.56   72.59
  -1   7   4 1498.45   78.49
  -1   7   4 1422.76   71.09
   1   7  -4 1496.55   73.89
   1   7  -4 1558.04   81.09
   1   7  -4 1462.65   71.99
   0  -7  -4  177.88   13.80
   0  -7   4  157.18   19.40
   0   7   4  181.28   12.20
   0   7  -4  245.38   27.90
   0   7  -4  175.58   12.90
   0   7  -4  174.98   13.60
   0   7  -4  187.28   13.70
   0   7   4  163.98   16.30
   1  -7   4  735.03   39.60
  -1  -7  -4  848.82   43.50
  -1  -7  -4  829.72   48.60
   1   7   4  857.91   41.40
   1   7   4  734.23   43.90
  -1   7  -4  789.22   41.00
   1   7   4  793.12   43.30
  -1   7  -4  809.22   41.50
  -1   7  -4  774.42   43.70
  -1   7  -4  823.02   50.39
  -2  -7  -4 1512.05   79.59
  -2  -7  -4 1467.65   71.89
  -2   7  -4 1408.86   78.69
  -2   7  -4 1420.66   68.19
   2   7   4 1351.66   70.19
   2   7   4 1292.07   75.69
  -2   7  -4 1393.96   68.19
   2   7   4 1348.77   68.99
  -3  -7  -4   11.40    6.60
   3  -7   4   38.70   25.40
  -3  -7  -4    7.60   14.50
  -3   7  -4   22.00    4.70
  -3   7  -4   11.50   10.40
   3   7   4   17.30    6.80
   3   7   4   31.50    7.00
  -3   7  -4   23.10    4.50
   3   7   4    7.10   12.10
  -4  -7  -4  976.00   55.69
  -4  -7  -4  980.20   68.19
   4  -7   4  998.00   81.19
   4   7   4 1019.70   52.69
   4   7   4 1071.79   53.69
  -4   7  -4  995.30   62.19
  -5  -7  -4  152.58   33.90
  -5  -7  -4  128.49   19.10
   5   7   4  145.79   14.80
  -5   7  -4  124.19   23.90
   5   7   4  132.89   16.00
  -6  -7  -4  257.67   48.50
  -6  -7  -4  194.48   23.30
   6   7   4  254.27   19.80
  -6   7  -4  189.48   29.90
   6   7   4  205.38   17.70
  -7  -7  -4  170.58   44.30
  -7  -7  -4  159.38   22.00
   7   7   4  131.29   16.00
  -7   7  -4  141.79   26.30
   7   7   4  144.99   17.70
  -8  -7  -4   13.10   12.90
  -8  -7  -4   10.30   33.80
   8   7   4   12.60   10.10
  -8   7  -4    2.50   17.10
  -8  -8   4  315.47   52.19
  -8   8   4  400.36   35.80
   8   8  -4  410.26   30.00
  -7  -8   4   31.10   24.40
  -7   8   4   43.30   16.90
   7   8  -4    7.20    9.90
   7   8  -4   22.10   11.70
   7   8  -4   41.00   11.40
  -6  -8   4  440.56   62.89
   6   8  -4  348.77   28.50
   6   8  -4  399.46   29.60
  -6   8   4  481.95   35.00
   6   8  -4  438.76   28.40
  -5  -8   4  350.46   42.50
   5   8  -4  349.47   25.80
   5   8  -4  367.36   24.70
  -5   8   4  365.86   30.30
   5   8  -4  345.47   28.40
  -4  -8   4   99.09   23.20
   4   8  -4  144.59   15.90
   4   8  -4  108.79   15.70
  -4   8   4  113.19    9.20
   4   8  -4  105.39   13.90
  -4   8   4  126.49   20.60
  -3  -8   4  499.45   39.30
   3   8  -4  488.25   30.50
  -3   8   4  389.66   34.90
   3   8  -4  558.74   38.50
   3   8  -4  494.55   28.90
   3   8  -4  513.65   30.20
  -3   8   4  517.85   26.30
  -2  -8   4   49.60   15.50
   2   8  -4   54.69   15.20
   2   8  -4   73.49   11.10
   2   8  -4   67.09   10.90
  -2   8   4   50.39   14.70
   2   8  -4   68.99   10.20
  -2   8   4   57.19    7.00
   1  -8  -4  167.98   14.30
  -1  -8   4  208.18   29.30
   1   8  -4  219.58   28.00
   1   8  -4  163.88   14.30
  -1   8   4  190.08   12.80
   1   8  -4  180.88   14.50
  -1   8   4  194.88   20.30
   1   8  -4  194.08   14.30
   0  -8   4  117.79   17.90
   0  -8  -4  105.69   12.60
   0   8   4  117.09    9.80
   0   8  -4  123.89   21.80
   0   8  -4  117.59   11.00
   0   8  -4  105.69   10.30
   0   8   4  121.59   16.70
   0   8  -4  100.19   12.80
  -1  -8  -4   13.40    6.30
   1  -8   4   24.00   10.20
  -1  -8  -4   -0.80   10.30
   1  -8   4   14.70    4.80
   1   8   4   27.00    5.70
  -1   8  -4   24.80   12.10
  -1   8  -4   19.40    8.50
  -1   8  -4   28.40    5.90
  -1   8  -4   27.40    5.90
   1   8   4   27.20    9.40
   1   8   4   25.30    7.80
  -2  -8  -4   24.50   14.70
  -2  -8  -4   41.70    9.40
  -2   8  -4   23.30    5.70
   2   8   4   29.20   11.60
  -2   8  -4   20.30   11.50
   2   8   4   43.20    9.60
  -2   8  -4   22.20    5.40
   2   8   4   21.10    5.60
  -2   8  -4   37.90   10.00
  -3  -8  -4   46.80   11.20
   3  -8   4   23.40   27.90
  -3  -8  -4   46.40   18.40
   3   8   4   42.70    9.80
   3   8   4   20.30    6.30
  -3   8  -4   25.20    5.70
  -3   8  -4   23.10    5.20
  -3   8  -4   13.30   11.20
  -4  -8  -4   92.29   25.10
   4   8   4   89.99   13.40
  -4   8  -4   52.29   16.90
   4   8   4   64.19   10.40
  -5  -8  -4   16.90   20.80
  -5  -8  -4    1.50    6.40
   5   8   4    3.50    7.40
   5   8   4    1.70    5.00
  -5   8  -4    6.10   13.30
  -6  -8  -4   89.49   18.10
  -6  -8  -4  162.28   39.90
  -6   8  -4   75.19   24.30
   6   8   4   84.19   14.40
   6   8   4   75.09   11.90
  -7  -8  -4   88.99   19.10
  -7  -8  -4   50.79   35.50
  -7   8  -4   65.39   21.90
   7   8   4   98.99   16.10
  -7  -9   4   21.80   25.40
  -7   9   4    0.80   12.00
   7   9  -4   -9.50    9.10
  -6  -9   4   29.20   23.40
   6   9  -4   23.80    9.60
   6   9  -4   59.59   12.90
  -6   9   4   41.10   16.30
   6   9  -4   44.80   12.20
  -5  -9   4   46.60   24.30
   5   9  -4   44.40   12.70
  -5   9   4   69.99   17.20
   5   9  -4   55.49   11.50
   5   9  -4   43.60   10.70
  -4  -9   4   48.60   20.40
  -4   9   4   47.50   14.70
   4   9  -4   63.49   11.00
   4   9  -4   62.69   13.60
  -4   9   4   59.79    7.40
  -3  -9   4  651.13   47.70
   3   9  -4  597.24   36.10
   3   9  -4  644.34   45.50
   3   9  -4  609.04   34.70
   3   9  -4  580.64   35.60
  -3   9   4  579.94   31.40
  -2  -9   4    2.10   13.20
   2   9  -4   12.60    6.50
   2   9  -4   21.70    7.00
  -2   9   4   10.40    4.20
   2   9  -4   17.00    6.60
  -2   9   4    7.50   10.70
   2   9  -4   10.10   11.80
   1  -9  -4  883.51   50.19
  -1  -9   4  941.71   57.39
  -1   9   4  960.70   47.50
   1   9  -4 1010.20   60.79
   1   9  -4  913.11   49.40
  -1   9   4  850.21   55.29
   1   9  -4  894.11   48.90
   1   9  -4  946.21   49.80
   0  -9   4  313.47   28.00
   0   9   4  314.97   19.50
   0   9   4  308.77   25.90
   0   9  -4  301.07   24.10
   0   9  -4  296.87   22.60
   0   9  -4  299.67   22.40
   0   9  -4  319.67   36.70
  -1  -9  -4  355.26   25.80
  -1  -9  -4  366.76   32.20
   1   9   4  364.66   26.50
  -1   9  -4  380.86   23.00
  -1   9  -4  388.16   23.00
  -1   9  -4  388.16   28.60
   1   9   4  310.87   25.80
   1   9   4  354.96   22.50
  -1   9  -4  349.07   33.40
   2  -9   4  996.60   54.09
  -2  -9  -4 1176.68   69.49
  -2  -9  -4 1144.09   60.79
   2   9   4 1105.29   58.89
   2   9   4 1011.30   61.49
   2   9   4 1074.89   56.29
  -2   9  -4 1051.19   68.19
  -2   9  -4 1138.29   55.29
  -2   9  -4 1126.29   55.59
  -3  -9  -4    2.30   16.10
  -3  -9  -4    8.70    7.70
  -3   9  -4   -2.70    3.50
  -3   9  -4    5.30   11.80
   3   9   4    5.30    5.20
  -3   9  -4    4.80    4.50
  -4  -9  -4  727.83   59.39
  -4  -9  -4  717.53   46.00
   4   9   4  686.53   40.70
  -4   9  -4  708.53   57.09
   4   9   4  798.92   43.20
  -5  -9  -4   84.19   31.80
  -5  -9  -4   83.99   16.60
   5   9   4   67.39   11.10
  -5   9  -4   63.39   21.30
   5   9   4   86.59   14.60
  -6  -9  -4   70.19   34.60
  -6  -9  -4  122.49   21.00
   6   9   4   96.99   14.90
  -6   9  -4   88.89   24.40
  -6 -10   4  284.07   47.80
   6  10  -4  310.57   25.30
  -6  10   4  307.57   31.80
  -5 -10   4  245.28   42.10
   5  10  -4  243.38   23.10
  -5  10   4  282.97   49.70
   5  10  -4  237.38   22.70
   5  10  -4  287.97   22.40
  -4 -10   4   73.29   25.50
   4  10  -4   79.39   13.40
   4  10  -4   93.29   15.20
   4  10  -4   90.49   15.00
  -4  10   4   83.59   10.10
  -4  10   4   73.39   18.40
  -3 -10   4  538.65   45.80
  -3  10   4  522.75   28.40
  -3  10   4  418.76   39.50
   3  10  -4  552.84   33.70
   3  10  -4  522.65   32.30
   3  10  -4  529.15   33.00
  -2 -10   4   70.89   21.20
   2  10  -4   19.60    7.70
   2  10  -4   36.70    9.50
   2  10  -4   57.99   19.30
  -2  10   4   38.50   15.70
   2  10  -4   20.50    7.90
  -2  10   4   45.40    7.20
  -1 -10   4  329.47   32.50
   1  10  -4  308.87   23.30
  -1  10   4  314.87   20.10
   1  10  -4  307.87   22.80
   1  10  -4  368.26   34.90
  -1  10   4  315.77   30.20
   1  10  -4  315.17   25.90
   0 -10   4   88.49   19.60
   0 -10  -4   83.39   14.70
   0  10   4   80.09   15.80
   0  10   4   86.59   18.40
   0  10  -4   64.39   13.60
   0  10  -4   68.39   10.70
   0  10  -4   99.69   12.40
   1 -10   4   23.40   14.10
  -1 -10  -4   23.80    8.80
  -1  10  -4   31.20   12.00
   1  10   4   22.90   14.90
  -1  10  -4   31.90    7.60
  -1  10  -4   39.30    8.00
  -1  10  -4   49.60   17.40
   1  10   4   21.30    7.00
  -2 -10  -4   17.70   10.10
  -2 -10  -4   30.70   18.70
   2 -10   4   28.50   13.00
  -2  10  -4   26.10    6.60
   2  10   4   23.50    7.50
   2  10   4   14.80    9.00
  -2  10  -4   18.30    5.60
  -2  10  -4   24.60   11.50
   2  10   4    7.10   12.10
  -2  10  -4   31.10   16.90
   3 -10   4   20.50   14.90
  -3 -10  -4   16.00    9.10
  -3 -10  -4   40.10   21.60
   3  10   4    3.20    7.50
  -3  10  -4    0.50   12.60
   3  10   4   10.00    5.70
  -3  10  -4    7.20    8.50
  -4 -10  -4   66.69   27.30
  -4 -10  -4   38.30   12.10
  -4  10  -4   13.10   15.40
   4  10   4   20.10    9.30
   4  10   4   32.60    8.10
   5  10   4   -0.60    5.90
  -5  10  -4   -9.00   14.30
   5  10   4   -4.80    8.10
  -6 -10  -4   48.20   34.70
  -6  10  -4   51.79   21.60
   6  10   4   31.80   11.30
  -5 -11   4    9.80   24.60
   5  11  -4   34.90   11.70
   5  11  -4   11.90    9.20
   5  11  -4    3.20    8.80
  -5  11   4   11.50   14.80
  -4 -11   4   62.59   29.30
   4  11  -4   71.99   14.20
  -4  11   4   41.40   18.00
   4  11  -4   59.39   12.10
  -4  11   4   58.19    8.20
   4  11  -4   68.89   13.80
  -4  11   4   68.29    9.20
  -3 -11   4  295.47   43.20
   3  11  -4  367.56   25.90
   3  11  -4  372.66   26.70
   3  11  -4  340.57   26.00
  -3  11   4  256.77   35.00
  -2 -11   4   -7.00   15.80
   2  11  -4    4.10    8.20
  -2  11   4    2.00   12.30
   2  11  -4   -6.20    5.40
   2  11  -4   -2.10    6.70
  -2  11   4   -0.70    4.00
  -1 -11   4  661.33   49.50
   1  11  -4  648.04   37.40
   1  11  -4  671.13   40.10
  -1  11   4  575.64   34.40
   1  11  -4  611.04   37.30
  -1  11   4  598.24   45.80
   0 -11   4  212.68   29.70
   0  11   4  203.28   16.30
   0  11  -4  198.78   24.70
   0  11  -4  192.78   17.00
   0  11   4  186.58   26.70
   0  11  -4  191.48   17.60
   0  11  -4  233.78   34.50
   1 -11   4  441.86   37.40
  -1 -11  -4  356.06   31.00
  -1  11  -4  477.55   43.10
  -1  11  -4  414.76   35.40
   1  11   4  427.66   33.10
   1  11   4  447.36   27.70
  -1  11  -4  411.46   26.30
  -1  11  -4  424.66   27.20
  -2 -11  -4  639.14   45.80
   2 -11   4  734.03   49.70
  -2 -11  -4  728.83   57.09
  -2  11  -4  831.02   48.60
  -2  11  -4  677.03   54.99
   2  11   4  733.13   45.30
  -2  11  -4  710.53   42.30
  -2  11  -4  666.63   44.30
   2  11   4  689.33   40.50
  -3 -11  -4   13.90   13.40
  -3 -11  -4   43.70   26.10
   3 -11   4   12.20   15.50
  -3  11  -4   21.60    7.10
  -3  11  -4   14.30   16.40
   3  11   4   14.00    9.40
   3  11   4   17.40    7.60
  -3  11  -4   17.50    5.60
  -4 -11  -4  661.23   62.49
   4  11   4  519.35   35.80
  -4  11  -4  530.25   49.40
   4  11   4  473.25   32.60
   3  12  -4  289.17   23.70
  -3  12   4  208.58   34.20
  -3  12   4  259.17   18.20
   3  12  -4  273.97   24.30
   3  12  -4  264.67   23.90
  -2 -12   4    7.90   19.80
  -2  12   4    9.90   14.80
   2  12  -4    3.50    9.40
   2  12  -4    7.20    6.90
   2  12  -4   11.00    7.90
  -1 -12   4  123.39   26.60
   1  12  -4  152.88   18.90
  -1  12   4  132.09   25.10
  -1  12   4  134.79   14.90
   1  12  -4  140.59   17.30
   1  12  -4  109.79   20.20
   0 -12   4   36.30   18.80
   0  12  -4   22.90    8.30
   0  12   4   37.20    8.50
   0  12  -4   37.10   15.30
   0  12   4   43.80   17.10
   0  12  -4   44.60    9.60
   1 -12   4   -2.40   17.50
  -1  12  -4    4.90    8.90
   1  12   4   -1.80   11.30
  -1  12  -4    2.80    6.60
   1  12   4    7.50    6.60
  -1  12  -4   -0.90   12.50
  -2 -12  -4   10.20   24.00
   2 -12   4   -3.90   16.30
  -2  12  -4    7.60    6.70
  -2  12  -4    5.80    5.50
  -2  12  -4   31.90   19.70
  -2  12  -4   15.70   14.20
   2  12   4    9.60    6.50
   2  12   4    1.40    9.80
   3 -12   4    4.20   17.20
  -3 -12  -4   25.60   28.30
  -3  12  -4    9.50   17.50
  -3  12  -4    4.70    4.50
   3  12   4   -3.60    6.40
   3  12   4    0.60    9.40
  -3  12  -4    3.30    5.60
 -10   0   5  332.57   55.19
  -9   0   5    1.10   23.70
  -8   0   5  470.35   47.60
  -7   0   5  517.15   44.30
  -6   0   5  244.08   30.80
   6   0  -5  201.08   14.40
   5   0  -5 1527.85   75.69
   5   0  -5 1553.74   80.39
  -5   0   5 1553.14   83.79
   5   0  -5 1535.65   85.39
  -5   0   5 1615.44   74.99
   4   0  -5    8.80    6.70
   4   0  -5   12.40    5.00
   4   0  -5   10.70    3.40
  -4   0   5   15.10    8.50
  -4   0   5    9.40    3.00
   3   0  -5  261.27   18.20
  -3   0   5  249.78   17.20
  -3   0   5  244.28   14.40
  -3   0   5  264.87   19.00
   3   0  -5  247.78   14.80
   3   0  -5  262.37   17.00
   2   0  -5  554.14   29.20
   2   0  -5  549.95   27.80
   2   0  -5  491.65   34.80
  -2   0   5  537.45   29.40
  -2   0   5  531.75   28.90
  -2   0   5  473.55   34.50
   2   0  -5  567.04   28.80
  -2   0   5  531.65   27.50
  -1   0   5   30.10    4.80
   1   0  -5   46.10   12.70
  -1   0   5   38.80    5.70
   1   0  -5   54.69    6.60
   1   0  -5   34.40    5.30
  -1   0   5   34.00   12.50
   0   0   5  463.15   25.30
   0   0   5  484.15   35.50
   0   0  -5  490.35   34.90
   0   0  -5  509.15   25.50
   0   0  -5  509.15   25.50
   0   0   5  524.85   26.00
   1   0   5   59.39    6.10
  -1   0  -5   57.29    4.80
   1   0   5   71.19   19.20
  -1   0  -5   71.09   15.50
   1   0   5   49.30   14.30
   2   0   5  318.47   30.20
   2   0   5  324.27   31.40
   2   0   5  343.77   17.80
  -2   0  -5  342.67   17.60
  -2   0  -5  315.67   28.10
  -2   0  -5  341.77   34.20
   3   0   5    1.10   11.40
  -3   0  -5   -0.90    8.70
   3   0   5    2.10   11.40
  -3   0  -5    2.20    1.70
  -3   0  -5   -5.80   11.40
   3   0   5    5.40    2.00
   4   0   5  216.38   31.00
  -4   0  -5  229.18   13.90
  -4   0  -5  237.78   26.70
   4   0   5  250.27   13.90
  -4   0  -5  257.27   44.80
   4   0   5  286.07   36.10
   5   0   5  182.08   31.00
   5   0   5  243.58   14.10
  -5   0  -5  240.48   14.80
  -5   0  -5  256.47   45.40
  -6   0  -5   42.30    7.00
  -6   0  -5   31.30   24.80
  -7   0  -5  519.05   29.90
  -7   0  -5  491.05   72.89
  -8   0  -5   55.99   38.20
  -9   0  -5   92.49   48.70
 -10  -1   5   11.10   29.10
 -10   1   5  -25.80   27.80
  -9  -1   5   -5.80   23.20
  -9   1   5  -44.70   19.30
  -8  -1   5   78.79   24.20
  -8   1   5   49.00   23.90
  -7  -1   5   67.29   22.90
   7   1  -5   54.79   15.70
  -7   1   5   57.19   20.10
   6  -1  -5  121.39   10.80
  -6  -1   5  143.69   24.80
   6  -1  -5  135.09   20.90
  -6   1   5  174.38   27.00
   6   1  -5  174.18   16.00
   6   1  -5  169.18   21.20
  -5  -1   5  933.11   46.20
   5  -1  -5  892.21   46.70
   5  -1  -5  962.40   51.19
  -5  -1   5  970.70   55.59
   5  -1  -5  873.11   51.99
  -5   1   5  926.51   54.29
  -5   1   5  939.81   51.69
   5   1  -5  899.11   53.59
  -5   1   5  930.31   45.40
   5   1  -5  861.41   50.99
   5   1  -5  974.20   47.30
   4  -1  -5    0.60    4.30
  -4  -1   5    5.70    2.90
  -4  -1   5  -10.50    5.50
   4  -1  -5    5.30    5.90
   4  -1  -5    1.30    2.60
  -4   1   5   -2.30    5.70
   4   1  -5    5.60    2.90
   4   1  -5    8.40    5.00
   4   1  -5    4.50    6.10
  -4   1   5   -3.20    3.50
  -4   1   5    8.70    2.60
   3  -1  -5 4525.55  202.88
  -3  -1   5 4282.27  204.48
   3  -1  -5 4258.17  202.28
   3  -1  -5 4238.88  200.28
  -3   1   5 4210.78  202.88
  -3   1   5 4368.86  202.98
   3   1  -5 4371.86  204.08
   3   1  -5 4296.07  202.78
  -3   1   5 4107.79  199.78
   3   1  -5 4270.47  200.58
  -2  -1   5 1208.88   61.39
   2  -1  -5 1287.37   60.69
   2  -1  -5 1320.37   60.19
  -2  -1   5 1243.98   58.89
  -2  -1   5 1256.67   66.69
   2   1  -5 1116.19   60.69
   2   1  -5 1178.78   58.99
   2   1  -5 1192.48   59.89
  -2   1   5 1238.58   60.69
   2   1  -5 1185.78   63.89
  -2   1   5 1160.18   59.59
  -2   1   5 1219.98   59.29
  -1  -1   5 2027.20   95.59
   1  -1  -5 1824.72   93.89
   1  -1  -5 1883.91   95.49
  -1  -1   5 1851.01  101.59
  -1  -1   5 1862.01   94.29
   1  -1  -5 1899.81  102.79
  -1   1   5 2278.87   94.99
  -1   1   5 2047.50   95.69
   1   1  -5 2302.47  101.99
   0  -1  -5 2504.35  122.79
   0  -1  -5 2547.45  131.89
   0  -1   5 2636.94  131.29
   0  -1   5 2702.03  123.19
   0   1   5 2308.97  132.49
   0   1  -5 2694.43  130.29
   0   1  -5 2775.02  123.19
   0   1   5 2549.44  123.39
   0   1   5 2742.73  122.49
   1  -1   5   64.39    5.80
  -1  -1  -5   45.20   14.60
   1  -1   5   70.29   19.60
  -1  -1  -5   51.69    4.20
  -1  -1  -5   94.09   20.10
   1  -1   5   74.89   15.30
  -1  -1  -5   55.29    4.70
  -1   1  -5   49.00   11.50
   1   1   5   39.80    4.10
   1   1   5   45.90   14.50
   1   1   5   34.80    4.40
  -1   1  -5   51.89    6.00
   2  -1   5 4993.10  229.98
  -2  -1  -5 4931.51  244.88
  -2  -1  -5 5016.50  242.38
  -2  -1  -5 5013.90  229.48
   2  -1   5 5061.99  247.48
   2  -1   5 4726.63  239.98
  -2   1  -5 5111.19  238.18
   2   1   5 5066.89  241.48
   2   1   5 4600.64  228.88
  -2   1  -5 5063.89  229.18
   2   1   5 4923.01  241.78
  -2   1  -5 4882.31  248.48
  -3  -1  -5  758.42   52.89
  -3  -1  -5  583.94   45.30
   3  -1   5  720.93   34.20
   3  -1   5  685.93   46.70
  -3  -1  -5  671.13   34.20
   3  -1   5  604.04   48.60
   3   1   5  669.43   34.00
   3   1   5  697.43   34.00
  -3   1  -5  718.23   33.40
   3   1   5  693.53   47.10
  -3   1  -5  652.93   41.80
  -3   1  -5  650.63   53.89
  -4  -1  -5  897.81   59.49
  -4  -1  -5 1045.50   48.60
   4  -1   5  888.71   48.80
   4  -1   5  907.31   61.69
   4  -1   5 1006.40   65.29
  -4   1  -5  989.20   47.10
   4   1   5 1030.70   48.00
  -4   1  -5 1129.99   80.49
  -4   1  -5  928.11   55.09
   4   1   5  956.70   62.49
   5  -1   5  912.61   51.39
   5  -1   5  910.51   64.89
  -5  -1  -5 1018.00   73.09
  -5  -1  -5  972.00   49.10
  -5   1  -5  967.90   55.09
  -5   1  -5  993.80   47.70
  -5   1  -5  922.91   74.09
   5   1   5 1014.60   48.40
   6  -1   5   43.20   11.10
  -6  -1  -5   43.60    7.90
  -6  -1  -5   81.49   29.30
  -6   1  -5   38.20    6.30
  -6   1  -5   74.19   30.90
  -7  -1  -5  250.57   49.60
  -7  -1  -5  270.27   19.40
  -7   1  -5  259.47   17.50
  -7   1  -5  301.27   56.99
  -8  -1  -5    8.30   31.70
  -8  -1  -5   11.60    7.00
  -8   1  -5   -9.00   31.80
  -9  -1  -5   16.70   39.20
  -9   1  -5   55.69   45.10
 -10  -2   5  227.18   48.00
 -10   2   5  343.47   57.59
  -9  -2   5   12.60   24.80
  -9   2   5  -13.10   24.40
  -8  -2   5  371.86   47.90
  -8   2   5  381.56   49.60
  -7  -2   5  460.15   41.20
   7   2  -5  412.66   25.90
   7   2  -5  387.36   26.60
  -7   2   5  379.36   39.20
  -6  -2   5  157.58   26.50
   6  -2  -5   76.79   16.30
   6   2  -5  102.09   11.70
  -6   2   5  110.19    7.60
   6   2  -5  109.49   13.70
  -6   2   5   76.29   14.20
  -6   2   5   96.49   20.40
   5  -2  -5  694.43   40.70
  -5  -2   5  786.82   49.60
   5  -2  -5  728.13   40.50
   5  -2  -5  678.83   35.10
   5   2  -5  715.33   36.80
   5   2  -5  664.53   41.60
  -5   2   5  688.93   43.00
   5   2  -5  646.54   43.30
  -5   2   5  637.24   33.90
  -4  -2   5    3.30    6.90
  -4   2   5   38.10    8.90
   4   2  -5   32.20    6.20
  -4   2   5   33.10    9.70
  -4   2   5   28.80    4.30
  -3  -2   5  146.79   17.80
   3  -2  -5  119.09   11.20
  -3  -2   5  134.69   17.70
  -3  -2   5  121.09    9.70
   3  -2  -5  106.99   11.60
   3   2  -5  168.68   10.90
  -3   2   5  181.28   13.30
   3   2  -5  162.98   12.90
  -3   2   5  169.28   10.30
  -3   2   5  174.18   13.10
   3   2  -5  158.38   14.80
  -2  -2   5  303.77   19.60
  -2  -2   5  319.77   16.10
  -2  -2   5  300.37   22.30
   2  -2  -5  313.77   18.60
   2  -2  -5  299.97   15.00
   2   2  -5  263.87   15.90
  -2   2   5  224.68   17.30
   2   2  -5  266.37   18.60
  -2   2   5  237.28   15.50
  -2   2   5  256.07   15.50
   2   2  -5  242.08   18.90
  -1  -2   5   79.09   13.40
  -1  -2   5   75.59    6.20
   1  -2  -5   63.29    5.20
   1  -2  -5   84.39    9.90
  -1   2   5   76.89    5.80
   1   2  -5   76.19   12.00
  -1   2   5  101.69   11.50
   1   2  -5   68.99    6.20
   0  -2  -5  462.15   25.00
   0  -2  -5  455.35   23.70
   0  -2   5  493.15   31.70
   0  -2   5  478.85   24.50
   0   2  -5  450.75   24.50
   0   2   5  500.25   26.00
   0   2  -5  481.85   30.20
   1  -2   5  216.08   19.30
   1   2   5  144.69    8.80
  -1   2  -5  141.19    9.50
  -1   2  -5  159.48   18.30
   1   2   5  135.79   18.90
   1   2   5  132.19    9.20
  -2  -2  -5  316.07   35.50
   2  -2   5  343.77   41.90
   2  -2   5  254.07   15.80
  -2  -2  -5  250.87   15.60
  -2  -2  -5  279.47   31.10
   2  -2   5  271.97   25.30
   2   2   5  271.77   15.50
   2   2   5  322.77   26.20
  -2   2  -5  285.17   15.40
   2   2   5  331.07   15.90
  -2   2  -5  305.77   22.90
   3  -2   5   11.60   10.30
   3  -2   5   34.10   19.00
  -3  -2  -5   23.90    4.30
  -3  -2  -5   29.80   14.10
   3  -2   5   23.30    4.40
  -3  -2  -5   12.70   13.00
  -3   2  -5   29.00   19.10
   3   2   5    8.50   10.50
  -3   2  -5   10.80    7.50
   3   2   5    6.50    3.00
  -3   2  -5   11.80    2.40
   3   2   5   12.00    3.00
  -4  -2  -5  438.16   41.20
  -4  -2  -5  581.74   47.70
   4  -2   5  499.15   40.50
   4  -2   5  520.95   27.20
  -4  -2  -5  539.95   28.30
   4  -2   5  523.05   45.70
   4   2   5  530.95   41.90
   4   2   5  510.75   27.30
  -4   2  -5  555.04   25.90
   4   2   5  508.65   27.70
  -4   2  -5  481.05   33.90
  -4   2  -5  543.35   69.69
  -5  -2  -5  459.25   26.60
  -5  -2  -5  501.95   47.80
   5  -2   5  429.96   41.10
   5   2   5  470.35   28.10
  -5   2  -5  485.55   23.90
  -5   2  -5  453.05   32.10
   5   2   5  458.05   25.30
  -5   2  -5  455.65   63.19
  -6  -2  -5   92.79   18.20
   6  -2   5   62.89   15.90
   6  -2   5   50.29   36.70
  -6  -2  -5   57.59   28.50
  -6   2  -5   54.19   12.70
   6   2   5   69.19    8.60
  -6   2  -5   58.69   29.60
  -7  -2  -5  658.13   36.90
  -7  -2  -5  483.95   70.69
  -7   2  -5  556.84   76.19
  -8  -2  -5    9.50    7.60
  -8  -2  -5   -0.20   29.10
  -8   2  -5   -2.40   32.70
  -9  -2  -5  163.58   51.39
  -9   2  -5  218.88   64.79
 -10  -3   5   11.60   28.30
 -10   3   5   14.70   34.60
  -9  -3   5   16.70   23.40
  -9   3   5   -6.70   25.50
  -8  -3   5   53.79   24.40
  -8   3   5   29.90   24.60
  -7  -3   5   71.89   23.70
  -7   3   5   37.50   12.40
   7   3  -5   24.40    8.50
  -7   3   5   26.80   21.70
   7   3  -5   26.80   10.00
  -6  -3   5   80.89   19.40
  -6   3   5   32.40   10.70
   6   3  -5   53.89    9.60
  -6   3   5   35.50   15.40
   6   3  -5   44.60   10.10
   5  -3  -5  587.04   31.50
   5  -3  -5  622.14   37.80
   5  -3  -5  573.84   37.60
  -5  -3   5  671.03   44.00
   5  -3  -5  703.73   42.80
  -5   3   5  618.34   41.30
   5   3  -5  668.93   35.20
   5   3  -5  671.13   36.50
  -5   3   5  674.73   38.80
   4  -3  -5    0.10    6.00
  -4  -3   5    4.60    8.40
   4  -3  -5    4.90    5.50
   4  -3  -5    5.10    5.80
  -4   3   5   11.90    3.30
  -4   3   5   12.80    6.10
  -4   3   5    6.40    7.80
   4   3  -5   26.90   11.00
   4   3  -5    4.60    3.60
   3  -3  -5 2645.14  125.69
  -3  -3   5 2603.14  126.79
   3  -3  -5 2716.23  120.19
  -3  -3   5 2635.34  127.79
  -3  -3   5 2682.63  122.19
   3   3  -5 2471.25  126.29
  -3   3   5 2411.16  121.29
   3   3  -5 2436.86  124.09
   3   3  -5 2607.94  122.49
  -3   3   5 2495.65  125.19
  -2  -3   5 1590.44   74.59
   2  -3  -5 1561.04   72.99
  -2  -3   5 1512.55   78.29
  -2  -3   5 1531.15   79.79
   2  -3  -5 1532.65   77.59
   2   3  -5 1585.24   78.09
  -2   3   5 1614.04   73.69
  -2   3   5 1409.06   77.19
   2   3  -5 1537.15   77.79
   1  -3  -5 1921.61   99.49
  -1  -3   5 1931.21  103.59
  -1  -3   5 2031.10   97.79
  -1  -3   5 1934.11  100.89
   1  -3  -5 1898.11   97.39
  -1   3   5 2228.38   97.09
   1   3  -5 2223.38  103.09
   1   3  -5 2193.68   98.39
  -1   3   5 2185.88  101.49
   0  -3   5 3345.67  172.48
   0  -3   5 3594.44  165.68
   0  -3  -5 3715.23  166.78
   0  -3  -5 3599.94  165.28
   0  -3  -5 3336.07  172.28
   0   3  -5 3450.95  165.78
   0   3  -5 3545.55  171.38
   0   3   5 3731.33  167.68
   0   3   5 3513.65  164.98
  -1  -3  -5  155.18   22.00
   1  -3   5  112.99   17.50
   1  -3   5  105.69    7.60
  -1  -3  -5  118.19    8.70
   1   3   5  124.39   16.70
   1   3   5  101.39    8.40
   1   3   5  112.49    7.60
  -1   3  -5  127.29   16.60
  -1   3  -5   92.39    7.70
   2  -3   5 3540.55  174.78
   2  -3   5 3398.46  187.78
  -2  -3  -5 3480.95  165.68
   2  -3   5 3655.43  164.98
  -2  -3  -5 3696.93  166.08
  -2  -3  -5 3614.14  178.18
   2   3   5 3308.37  165.18
  -2   3  -5 3564.14  172.18
   2   3   5 3543.45  173.68
   2   3   5 3552.04  165.18
  -2   3  -5 3478.45  164.98
  -3  -3  -5  387.76   22.80
   3  -3   5  404.06   21.60
  -3  -3  -5  465.65   37.00
   3  -3   5  357.96   31.90
  -3  -3  -5  349.67   35.00
  -3   3  -5  470.45   29.80
  -3   3  -5  406.26   20.90
   3   3   5  415.66   22.50
   3   3   5  460.55   37.10
  -4  -3  -5  908.51   62.29
  -4  -3  -5  876.01   44.90
   4  -3   5  867.61   63.39
  -4  -3  -5  852.61   58.39
  -4   3  -5  825.12   49.99
   4   3   5  858.21   45.40
   4   3   5  866.51   43.60
  -5  -3  -5  450.25   42.30
  -5  -3  -5  479.65   47.00
  -5  -3  -5  482.05   27.90
   5  -3   5  442.36   41.70
  -5   3  -5  406.26   32.60
  -5   3  -5  453.85   66.19
   5   3   5  477.75   26.30
   5   3   5  519.65   27.40
   6  -3   5   23.50   21.60
  -6  -3  -5   19.60   23.50
  -6  -3  -5   16.40    7.80
   6   3   5   11.50    7.30
  -6   3  -5   70.19   33.70
   6   3   5   26.60    6.00
  -6   3  -5   18.90   10.40
   7  -3   5  142.59   37.10
  -7  -3  -5  144.89   17.10
  -7  -3  -5  128.59   41.40
  -7   3  -5  157.08   35.60
  -7   3  -5  130.99   45.00
   7   3   5  157.78   15.90
  -8  -3  -5  -12.10   28.40
  -8  -3  -5   12.40    8.40
   8   3   5   17.20    9.50
  -8   3  -5   25.90   39.40
  -9  -3  -5   56.79   42.60
  -9   3  -5  -25.40   40.80
   9   3   5    1.20   10.20
 -10  -4   5  194.18   47.70
  -9  -4   5   58.49   28.50
  -9   4   5   -3.60   29.90
  -8  -4   5  397.66   52.19
   8   4  -5  398.26   28.90
   8   4  -5  402.36   28.90
  -8   4   5  405.96   50.29
  -7  -4   5  566.84   47.90
   7  -4  -5  451.95   38.90
  -7   4   5  542.25   37.00
   7   4  -5  573.14   34.40
   7   4  -5  511.15   32.70
   6  -4  -5   45.10   12.80
   6  -4  -5   37.10   17.30
  -6  -4   5   78.99   20.20
  -6   4   5   51.79   17.80
  -6   4   5   81.49   15.30
   6   4  -5   68.89   11.40
   6   4  -5   92.19   12.20
   5  -4  -5 1107.79   61.99
   5  -4  -5 1078.39   65.09
  -5  -4   5 1370.36   72.29
  -5   4   5 1062.39   66.19
   5   4  -5 1262.27   61.39
  -5   4   5 1301.47   65.29
   5   4  -5 1194.58   62.39
   4  -4  -5   10.20    8.90
   4  -4  -5   15.40    2.60
   4  -4  -5   16.70    8.10
  -4  -4   5   12.50    8.50
  -4  -4   5   16.40   10.30
   4   4  -5   11.70    6.50
   4   4  -5    9.20    4.00
  -4   4   5   -0.50    5.80
  -4   4   5   11.10    3.80
   4   4  -5    6.80    5.10
   4   4  -5    5.20    8.30
  -3  -4   5  921.41   51.29
   3  -4  -5  883.71   42.50
  -3  -4   5  927.31   50.49
   3  -4  -5  857.01   48.80
   3   4  -5  869.61   45.40
  -3   4   5  828.62   48.30
   3   4  -5  950.80   48.40
   3   4  -5  832.22   49.40
  -3   4   5  866.11   43.50
   2  -4  -5  540.55   26.70
  -2  -4   5  513.95   34.10
  -2  -4   5  558.64   33.30
   2  -4  -5  526.25   31.20
  -2  -4   5  536.85   28.30
  -2   4   5  508.65   26.70
   2   4  -5  562.04   28.70
   2   4  -5  565.24   32.90
  -2   4   5  451.05   31.50
  -1  -4   5    8.10    7.10
   1  -4  -5   13.00    3.00
   1  -4  -5    4.80    4.40
  -1  -4   5    7.10    2.90
  -1  -4   5    9.40    6.10
  -1   4   5    5.80    5.00
  -1   4   5    6.40    2.20
   1   4  -5   12.00    6.70
   0  -4  -5   72.99   13.80
   0  -4  -5   73.19    7.90
   0  -4   5  113.89   17.10
   0  -4  -5   82.09    6.90
   0  -4   5   86.99    7.10
   0   4   5   80.59    6.40
   0   4  -5   83.39   13.60
   0   4  -5  113.09    7.90
   0   4   5  103.39   11.60
   1  -4   5   53.09   12.50
  -1  -4  -5   53.39    6.50
   1  -4   5   60.19    6.60
  -1  -4  -5   45.90   13.60
  -1  -4  -5   46.30    6.70
  -1   4  -5   54.49    6.50
   1   4   5   46.90    7.00
  -1   4  -5   53.19   12.00
   1   4   5   49.60   10.60
   1   4   5   51.49    5.20
  -2  -4  -5  191.88   26.30
  -2  -4  -5  155.68   12.00
   2  -4   5  162.08   10.70
  -2  -4  -5  164.18   12.60
   2  -4   5  142.79   34.80
   2  -4   5  175.58   25.10
  -2   4  -5  189.58   11.50
   2   4   5  187.38   12.30
   2   4   5  200.08   19.50
   2   4   5  196.88   11.80
  -2   4  -5  222.58   18.90
   3  -4   5   13.40   11.90
  -3  -4  -5   27.00    6.00
  -3  -4  -5   43.70   16.80
   3  -4   5   34.50   21.90
   3  -4   5   19.20    3.60
   3   4   5    7.80    3.20
   3   4   5    9.60    4.80
   3   4   5   17.60   11.60
  -3   4  -5    1.80    6.70
  -4  -4  -5  746.63   52.29
  -4  -4  -5  621.64   36.00
   4  -4   5  677.43   57.29
  -4  -4  -5  657.63   52.19
   4  -4   5  649.54   47.70
   4   4   5  629.44   34.50
   4   4   5  696.83   35.30
  -4   4  -5  659.13   43.30
  -5  -4  -5  292.57   19.40
  -5  -4  -5  268.37   37.80
   5  -4   5  238.18   39.60
  -5  -4  -5  219.88   40.30
   5   4   5  273.27   18.30
   5   4   5  259.57   17.10
  -5   4  -5  239.08   24.20
  -6  -4  -5  143.19   17.50
  -6  -4  -5  187.58   39.10
   6   4   5  125.19   11.40
  -6   4  -5   80.19   37.40
   6   4   5  102.09   13.00
  -6   4  -5   98.39   18.80
  -7  -4  -5  438.66   29.50
  -7  -4  -5  354.96   58.19
   7   4   5  423.46   27.30
  -7   4  -5  377.96   33.90
  -7   4  -5  355.76   68.19
  -8  -4  -5   -6.50    7.50
  -8  -4  -5    2.70   28.80
  -8   4  -5    1.40   11.90
   8   4   5    3.90    8.40
  -8   4  -5  -12.50   39.80
  -9  -4  -5  211.28   57.29
  -9   4  -5  152.88   59.89
   9   4   5  222.28   22.60
  -9  -5   5   10.10   22.60
  -9   5   5   -3.70   29.20
  -8  -5   5   59.59   24.90
  -8   5   5   74.09   30.60
  -8   5   5   33.60   13.50
   8   5  -5   25.90   10.00
   8   5  -5   39.60   10.90
  -7  -5   5   91.99   25.30
   7  -5  -5   26.50   15.50
   7  -5  -5   44.60   19.00
  -7   5   5   41.00   13.40
   7   5  -5   43.60   11.40
   7   5  -5   48.10   12.10
  -7   5   5   40.40   23.90
   6  -5  -5   48.80   15.50
  -6  -5   5   38.50   18.10
   6  -5  -5   40.60   11.80
  -6   5   5   62.99   14.80
   6   5  -5   49.40    9.90
  -6   5   5   37.30   20.20
   6   5  -5   67.59   11.80
   5  -5  -5  568.04   39.10
  -5  -5   5  542.45   42.50
  -5   5   5  610.44   36.90
   5   5  -5  533.95   32.40
   5   5  -5  540.95   33.90
   4  -5  -5   -1.30    8.00
  -4  -5   5    1.70    8.70
  -4  -5   5    6.50   10.20
  -4   5   5    7.00    7.00
   4   5  -5   -1.40    3.70
  -4   5   5    5.70    3.30
   4   5  -5    1.20    5.70
   4   5  -5   -4.70    6.00
  -3  -5   5 2202.98  113.49
  -3  -5   5 2350.16  118.49
   3  -5  -5 2134.39  110.89
   3  -5  -5 2223.58  114.89
   3  -5  -5 2329.57  105.19
  -3   5   5 2417.46  105.59
   3   5  -5 2207.98  112.79
   3   5  -5 2229.88  109.29
   3   5  -5 2240.48  111.89
  -3   5   5 1901.21  113.69
  -2  -5   5 1012.40   57.39
   2  -5  -5 1005.90   48.80
  -2  -5   5  977.00   55.39
   2  -5  -5  977.40   52.49
   2   5  -5 1012.60   55.49
  -2   5   5  989.90   48.30
   2   5  -5 1036.50   50.69
   2   5  -5  969.80   51.59
  -2   5   5  969.30   55.09
   1  -5  -5 1226.18   63.69
   1  -5  -5 1200.78   61.59
  -1  -5   5 1195.38   66.39
  -1   5   5 1358.86   67.49
   1   5  -5 1313.97   68.59
  -1   5   5 1280.87   61.19
   1   5  -5 1320.17   62.89
   1   5  -5 1283.37   61.09
   0  -5   5 1834.72  101.69
   0  -5  -5 1941.51   93.79
   0  -5   5 1961.50   93.49
   0  -5  -5 1959.90   94.79
   0   5  -5 1950.90   93.79
   0   5  -5 2011.50  100.69
   0   5   5 2049.40   96.69
   0   5   5 1925.71   92.89
  -1  -5  -5   69.39    8.70
   1  -5   5   37.30   12.40
   1  -5   5   43.70    5.80
  -1  -5  -5   36.00    6.80
  -1  -5  -5   51.79   14.10
  -1   5  -5   35.00   10.30
   1   5   5   52.39    8.70
   1   5   5   47.10    6.20
   1   5   5   30.20    9.50
  -1   5  -5   39.60    5.70
   2  -5   5 3086.19  146.19
  -2  -5  -5 3207.58  149.09
  -2  -5  -5 3213.98  158.98
   2  -5   5 2983.60  157.88
  -2  -5  -5 3054.69  150.58
  -2   5  -5 3091.19  146.79
   2   5   5 3199.08  148.29
   2   5   5 3188.58  147.49
   2   5   5 3050.99  153.68
  -3  -5  -5  489.75   38.00
   3  -5   5  445.66   57.59
  -3  -5  -5  377.96   23.50
   3   5   5  376.86   22.10
   3   5   5  388.36   23.00
  -3   5  -5  363.46   29.30
  -3   5  -5  390.46   21.10
   3   5   5  365.86   31.00
  -4  -5  -5  490.15   31.30
  -4  -5  -5  560.94   47.40
   4   5   5  579.54   30.60
  -4   5  -5  537.45   37.60
  -5  -5  -5  504.65   57.09
  -5  -5  -5  399.06   25.80
  -5  -5  -5  355.06   45.20
  -5   5  -5  402.36   32.40
   5   5   5  361.26   23.10
   5   5   5  396.56   24.40
  -6  -5  -5    0.20   21.10
  -6  -5  -5   21.70   23.70
  -6  -5  -5   29.10    9.10
   6   5   5   38.60    8.70
   6   5   5   14.50    5.80
  -6   5  -5   27.90   12.80
  -7  -5  -5  103.59   17.40
  -7  -5  -5  167.08   43.30
  -7   5  -5  114.09   20.50
   7   5   5  121.49   14.10
   7   5   5  130.89   20.30
  -8  -5  -5   17.20   10.80
  -8  -5  -5   27.80   34.40
  -8   5  -5   -0.40   12.30
   8   5   5   10.40    9.80
  -9  -6   5   15.80   27.70
  -9   6   5   -7.60   31.80
  -8  -6   5  340.27   48.30
   8   6  -5  418.36   52.39
   8   6  -5  269.47   33.10
  -8   6   5  344.77   53.49
  -7  -6   5  306.17   53.49
   7   6  -5  271.67   23.50
   7   6  -5  270.97   24.00
  -7   6   5  342.67   28.70
  -6  -6   5  119.79   26.20
  -6   6   5  152.98   21.90
   6   6  -5  100.09   14.80
   6   6  -5  112.59   16.80
  -5  -6   5  662.13   47.90
  -5  -6   5  541.25   42.10
   5   6  -5  666.83   38.00
  -5   6   5  667.23   41.30
   5   6  -5  625.64   36.50
   5   6  -5  627.14   39.80
  -4  -6   5   -4.60    9.30
  -4  -6   5   -2.20    8.70
   4   6  -5   -1.40    6.90
  -4   6   5   14.80    9.20
  -4   6   5    8.00    3.80
   4   6  -5    2.10    5.30
  -3  -6   5  378.06   29.00
  -3  -6   5  333.57   27.90
   3  -6  -5  331.77   18.20
   3   6  -5  298.37   19.30
   3   6  -5  311.07   21.60
   3   6  -5  297.87   20.20
   3   6  -5  339.67   25.60
  -3   6   5  247.98   23.90
  -3   6   5  359.26   19.10
  -2  -6   5  302.97   28.30
  -2  -6   5  330.07   26.80
   2  -6  -5  346.97   20.00
  -2   6   5  349.77   26.90
  -2   6   5  369.06   19.20
   2   6  -5  347.67   21.40
   2   6  -5  351.86   20.30
   2   6  -5  362.26   22.80
   2   6  -5  384.26   27.70
  -1  -6   5   -0.70    6.50
  -1  -6   5   -1.50    8.10
   1  -6  -5   -2.60    3.80
   1  -6  -5    3.90    3.00
  -1   6   5   -0.10    6.00
   1   6  -5    0.10    2.80
   1   6  -5   -2.20    3.00
  -1   6   5    2.00    2.10
   1   6  -5    3.90    8.90
   1   6  -5   -0.80    2.80
   0  -6   5   88.09   14.20
   0  -6  -5   92.39   10.50
   0   6   5   74.39    6.90
   0   6  -5   81.49   14.80
   0   6  -5   73.49    8.40
   0   6   5   92.79   13.40
   0   6  -5   78.29    9.10
   0   6  -5   90.39   11.00
  -1  -6  -5  114.59   19.10
  -1  -6  -5   92.59    9.20
  -1   6  -5   74.49    7.60
  -1   6  -5   92.19   16.80
  -1   6  -5  105.49   11.20
   1   6   5   99.89   12.20
   1   6   5   82.09   12.70
  -2  -6  -5  125.39   22.70
  -2  -6  -5  105.69   10.60
  -2   6  -5  159.08   22.80
  -2   6  -5  103.69   10.20
  -2   6  -5  126.19   14.30
   2   6   5  104.19   16.90
   2   6   5  119.79   11.10
   2   6   5  116.89    9.60
   3  -6   5   -1.00   21.80
  -3   6  -5    5.70    3.10
   3   6   5   -1.90   11.00
   3   6   5    7.50    5.20
  -3   6  -5    8.50    9.60
  -3   6  -5   -0.80    2.40
   3   6   5    1.40    3.20
  -4  -6  -5  263.07   39.30
  -4  -6  -5  244.28   19.60
   4   6   5  298.67   19.30
   4   6   5  272.87   18.00
  -4   6  -5  261.37   26.40
  -5  -6  -5  199.08   17.90
  -5  -6  -5  232.28   42.10
   5   6   5  186.98   16.50
  -5   6  -5  128.39   23.20
   5   6   5  198.58   15.00
  -6  -6  -5   33.10   25.40
  -6  -6  -5   66.99   31.40
  -6  -6  -5   73.09   14.30
  -6  -6  -5   38.10   15.10
  -6   6  -5   28.90   13.90
   6   6   5   27.10    9.20
   6   6   5   23.30    7.10
  -7  -6  -5  394.96   63.69
  -7  -6  -5  394.76   30.50
   7   6   5  427.46   27.80
   7   6   5  350.06   25.10
  -7   6  -5  353.56   35.70
  -8  -6  -5   12.20   10.50
  -8  -6  -5   28.60   36.80
   8   6   5    4.00    9.10
  -8   6  -5    5.80   15.20
  -9  -7   5  -16.50   25.40
  -9   7   5   -5.70   12.80
  -9   7   5    8.80   39.40
  -8  -7   5   40.20   28.20
   8  -7  -5   45.30   19.60
   8   7  -5   37.50   13.20
   8   7  -5   19.50   10.00
  -8   7   5   47.20   16.90
  -7  -7   5   31.90   24.20
  -7   7   5   58.59   16.50
   7   7  -5   23.90   10.40
   7   7  -5   23.80   11.10
  -6  -7   5   90.39   25.70
   6   7  -5   76.59   13.70
   6   7  -5  105.59   15.10
  -6   7   5  141.39   22.90
  -5  -7   5  345.57   37.00
  -5  -7   5  371.06   43.70
   5   7  -5  380.76   26.00
  -5   7   5  405.36   30.80
   5   7  -5  372.16   26.70
  -4  -7   5    7.90   12.60
   4   7  -5    9.50    5.90
   4   7  -5   11.80   10.60
  -4   7   5   21.30   10.90
   4   7  -5   12.00    6.10
   4   7  -5    2.50    7.10
  -4   7   5   11.90    4.10
  -3  -7   5 1494.85   82.59
   3   7  -5 1433.06   72.59
   3   7  -5 1500.45   80.59
  -3   7   5 1520.35   70.79
   3   7  -5 1430.36   73.99
   3   7  -5 1445.36   75.39
   2  -7  -5  419.46   23.70
  -2  -7   5  439.86   32.10
   2   7  -5  366.36   25.00
   2   7  -5  412.56   25.80
  -2   7   5  431.76   31.60
   2   7  -5  413.46   31.40
  -2   7   5  414.16   22.00
   2   7  -5  371.76   24.20
  -1  -7   5  887.11   53.49
   1  -7  -5  834.02   43.10
  -1   7   5  808.92   41.20
   1   7  -5  784.32   41.70
  -1   7   5  804.62   48.40
   1   7  -5  814.12   44.10
   1   7  -5  836.22   43.10
   1   7  -5  782.12   50.09
   0  -7  -5 1103.59   56.19
   0  -7   5 1120.19   60.79
   0   7  -5 1097.29   55.19
   0   7   5 1117.69   59.19
   0   7  -5 1079.39   63.59
   0   7  -5 1057.29   55.99
   0   7  -5 1084.99   54.99
   0   7   5 1071.69   54.19
  -1  -7  -5   67.59   17.90
  -1  -7  -5   66.09    9.60
   1   7   5   47.30   11.50
  -1   7  -5   66.79    9.00
   1   7   5   77.89   11.80
  -1   7  -5   45.30   13.60
  -1   7  -5   72.99    8.80
   1   7   5   70.39    8.70
  -2  -7  -5 1444.86   85.79
  -2  -7  -5 1508.65   76.89
   2   7   5 1418.06   74.29
  -2   7  -5 1518.55   73.79
  -2   7  -5 1580.54   74.19
   2   7   5 1545.85   76.29
  -2   7  -5 1554.54   84.99
  -3  -7  -5  302.37   21.20
   3  -7   5  342.17   54.89
  -3  -7  -5  388.96   44.40
   3   7   5  285.87   20.30
  -3   7  -5  289.77   17.00
  -3   7  -5  280.27   33.70
   3   7   5  304.77   18.90
  -3   7  -5  251.67   17.00
  -4  -7  -5  470.35   52.89
  -4  -7  -5  415.46   28.10
   4   7   5  421.56   26.30
  -4   7  -5  367.56   33.80
   4   7   5  406.56   25.00
  -5  -7  -5  396.96   28.50
  -5  -7  -5  387.66   53.59
   5   7   5  372.86   27.10
  -5   7  -5  372.16   34.70
   5   7   5  407.76   26.90
  -6  -7  -5   24.50   10.60
   6   7   5   19.30    8.70
   6   7   5   14.90    7.00
  -6   7  -5   25.30   15.40
  -7  -7  -5   83.59   16.20
  -7  -7  -5   85.99   36.70
   7   7   5  116.39   16.40
   7   7   5   62.39   12.70
  -7   7  -5   89.09   22.10
  -8  -7  -5   16.20   34.30
  -8  -7  -5    0.20   10.80
  -8   7  -5  -24.30   29.90
   8   7   5    4.20   10.20
  -8  -8   5  202.78   44.00
  -8   8   5  223.18   30.00
  -7  -8   5  243.68   42.30
   7   8  -5  125.29   18.80
   7   8  -5  138.89   19.40
  -7   8   5  178.38   27.40
   7   8  -5  208.28   19.20
  -6  -8   5   75.89   25.50
   6   8  -5   64.59   11.80
  -6   8   5   82.39   18.60
   6   8  -5   65.89   12.80
   6   8  -5   38.00   11.20
  -5  -8   5  380.46   45.60
   5   8  -5  361.26   26.60
   5   8  -5  371.96   25.20
  -5   8   5  375.96   31.80
  -4  -8   5    8.40   14.00
   4   8  -5   -1.60    4.60
   4   8  -5   -5.50    4.60
  -4   8   5    2.40    3.40
  -4   8   5    0.70    8.90
   4   8  -5   -8.80    9.60
   4   8  -5   -2.20    5.30
  -3  -8   5   96.39   21.20
   3   8  -5  112.49   14.80
   3   8  -5  117.39   13.30
  -3   8   5   94.89   19.20
   3   8  -5  116.29   21.10
  -3   8   5  114.49    9.10
   3   8  -5  103.89   13.00
  -2  -8   5  129.39   22.70
   2  -8  -5  154.18   21.40
   2   8  -5  184.68   15.80
  -2   8   5  221.28   27.70
  -2   8   5  187.08   12.20
   2   8  -5  187.78   15.00
   2   8  -5  204.48   26.50
   2   8  -5  177.48   14.30
  -1  -8   5   26.90   11.70
   1  -8  -5   15.20    5.40
   1   8  -5   10.90    5.30
  -1   8   5   23.80    5.20
  -1   8   5   23.10   10.20
   1   8  -5   11.10    5.10
   1   8  -5    1.00    5.00
   1   8  -5   11.90    9.80
   0  -8  -5    8.70    5.30
   0  -8   5   -2.40    9.30
   0   8  -5   26.50   11.10
   0   8   5   10.60    4.20
   0   8   5   22.50    9.60
   0   8  -5    8.10    4.60
   0   8  -5   15.70    5.10
   0   8  -5    6.30    5.50
  -1  -8  -5   23.60   14.40
  -1  -8  -5   32.80    8.00
   1  -8   5   49.30   23.50
  -1   8  -5   26.50   12.10
   1   8   5   55.49   11.00
   1   8   5   40.40    7.00
   1   8   5   39.40   10.00
  -1   8  -5   46.10    7.90
  -1   8  -5   46.70   10.80
  -1   8  -5   49.30    7.70
  -2  -8  -5   84.19   12.90
  -2  -8  -5  105.69   24.30
   2   8   5   90.69   10.50
   2   8   5   90.19   16.50
   2   8   5  107.89   14.00
  -2   8  -5   93.39    9.30
  -2   8  -5   92.69   10.70
  -2   8  -5   88.09   19.10
  -3  -8  -5   -2.00    4.40
  -3  -8  -5   -2.60   15.60
   3   8   5    4.40    6.30
   3   8   5    3.40    4.50
  -3   8  -5    3.30    3.40
  -3   8  -5   -5.70    8.80
  -3   8  -5    1.70    3.70
  -4  -8  -5  283.57   43.80
  -4   8  -5  220.28   30.60
   4   8   5  195.08   16.30
   4   8   5  234.68   21.80
  -5  -8  -5  107.69   18.00
  -5  -8  -5  144.69   36.10
   5   8   5  160.08   18.70
  -5   8  -5  125.19   24.80
   5   8   5  128.89   15.20
  -6  -8  -5    6.40   27.40
  -6  -8  -5   17.60   10.20
  -6   8  -5   12.50   15.90
   6   8   5   17.10    7.50
   6   8   5   30.70   10.90
  -7  -8  -5  265.97   56.39
  -7  -8  -5  215.58   49.20
  -7  -8  -5  303.97   29.40
  -7   8  -5  226.98   36.50
   7   8   5  302.57   24.90
  -7  -9   5   29.80   26.90
  -7   9   5   30.30   15.30
   7   9  -5   37.60   12.80
  -6  -9   5   35.90   25.10
   6   9  -5   34.60   10.60
   6   9  -5   28.10   10.40
  -6   9   5   59.09   21.00
   6   9  -5   15.40    9.30
  -5  -9   5  208.48   41.10
   5   9  -5  249.78   21.90
   5   9  -5  226.08   21.70
   5   9  -5  274.77   21.50
  -5   9   5  293.37   29.00
  -4  -9   5    5.70   17.20
   4   9  -5   -7.10    6.40
  -4   9   5    1.60   10.70
   4   9  -5   -0.40    7.30
  -4   9   5    8.40    4.00
   4   9  -5    5.10    6.30
  -3  -9   5  938.61   61.09
   3   9  -5  919.41   48.70
   3   9  -5  904.91   50.09
   3   9  -5 1005.40   60.79
  -3   9   5  748.33   56.29
   3   9  -5  903.51   50.69
  -3   9   5  954.80   46.30
  -2  -9   5  398.96   36.00
   2   9  -5  446.56   36.40
   2   9  -5  395.46   24.80
  -2   9   5  376.76   33.50
   2   9  -5  407.36   25.80
   2   9  -5  365.86   25.70
  -2   9   5  374.46   22.20
   1  -9  -5  351.16   24.30
  -1  -9   5  369.96   32.60
   1   9  -5  343.77   23.50
   1   9  -5  430.56   35.00
   1   9  -5  368.76   23.90
   1   9  -5  377.16   24.40
  -1   9   5  363.06   23.80
  -1   9   5  347.07   30.40
   0  -9  -5  918.91   50.69
   0  -9   5  937.51   55.39
   0   9  -5  858.81   48.80
   0   9   5  931.31   53.59
   0   9  -5  834.72   57.39
   0   9  -5  879.01   47.40
   0   9  -5  874.31   47.60
   0   9   5  892.71   46.40
  -1  -9  -5   -2.40    4.70
   1  -9   5    0.40   10.60
  -1   9  -5    1.00   10.40
  -1   9  -5    2.00    4.30
   1   9   5  -13.40    7.30
  -1   9  -5    5.00   15.20
  -1   9  -5   -1.30    4.80
   1   9   5   -3.90    3.10
  -2  -9  -5 1111.39   58.79
  -2  -9  -5 1123.89   70.59
   2  -9   5 1152.18   62.29
  -2   9  -5 1018.50   53.09
   2   9   5 1052.29   54.39
   2   9   5 1018.50   56.89
  -2   9  -5 1026.40   53.49
  -2   9  -5 1062.89   66.79
   2   9   5  879.01   58.79
  -3  -9  -5  320.47   42.20
  -3  -9  -5  195.88   22.20
  -3   9  -5  194.98   15.10
   3   9   5  222.58   19.20
   3   9   5  233.78   20.10
  -3   9  -5  200.78   14.60
  -4  -9  -5  250.87   24.30
  -4  -9  -5  295.17   46.30
  -4   9  -5  296.27   37.40
   4   9   5  308.77   22.60
   4   9   5  246.28   19.90
  -5  -9  -5  306.27   50.59
  -5  -9  -5  264.27   26.20
   5   9   5  316.67   24.30
  -5   9  -5  209.78   34.10
   5   9   5  308.17   22.10
  -6  -9  -5    3.60   10.30
  -6  -9  -5   -3.50   28.00
   6   9   5    1.10    9.40
  -6   9  -5   -2.10   16.60
  -6 -10   5   39.60   27.00
  -6  10   5   42.60   17.20
   6  10  -5   41.30   12.20
  -5 -10   5  319.27   44.30
   5  10  -5  266.27   25.50
   5  10  -5  372.96   25.80
  -5  10   5  341.87   21.60
   5  10  -5  333.27   27.00
  -5  10   5  323.57   33.50
  -4 -10   5   -5.70   17.50
   4  10  -5   -6.60    5.90
   4  10  -5    2.10    7.80
   4  10  -5    3.80    6.70
  -4  10   5    7.80    6.20
  -3 -10   5  154.78   29.40
   3  10  -5  188.88   20.30
   3  10  -5  142.19   17.40
   3  10  -5  194.68   30.50
   3  10  -5  174.28   19.10
  -3  10   5  149.09   12.20
  -3  10   5  148.29   26.30
  -2 -10   5  136.69   26.20
  -2  10   5  108.69   22.70
   2  10  -5  185.28   29.90
   2  10  -5  126.19   15.40
  -2  10   5  125.09   11.00
   2  10  -5  124.99   15.50
   2  10  -5  132.49   15.70
  -1 -10   5   49.80   18.40
   1  10  -5   12.10    7.60
  -1  10   5   29.50   14.20
  -1  10   5   27.60    6.30
   1  10  -5   23.10    8.50
   1  10  -5   21.30   21.20
   1  10  -5   16.20   12.50
   0 -10   5   23.70   14.70
   0 -10  -5   11.20    7.30
   0  10  -5   24.30    7.80
   0  10  -5   15.40   12.70
   0  10   5    7.90    5.10
   0  10  -5   10.10    6.30
   0  10   5    6.80   14.30
   0  10  -5    5.60    8.10
   1 -10   5    5.00   12.60
  -1 -10  -5   12.50    8.10
   1  10   5    5.80    8.70
  -1  10  -5    5.20    9.50
  -1  10  -5    2.40    5.10
   1  10   5    4.30    4.80
  -1  10  -5    1.20    4.50
  -1  10  -5   -1.70   10.70
   2 -10   5   48.40   15.90
  -2 -10  -5   37.70   20.70
  -2 -10  -5   41.80   11.70
   2  10   5   44.60   12.10
   2  10   5   42.20   14.60
  -2  10  -5   45.10    8.20
  -2  10  -5   62.49   20.00
   2  10   5   45.90    9.20
  -2  10  -5   51.39    9.30
  -3 -10  -5    5.50    8.40
  -3 -10  -5    3.70   20.00
   3  10   5   -2.30    4.60
  -3  10  -5   -0.70    4.40
   3  10   5    9.10    8.40
  -3  10  -5   13.50   13.60
  -3  10  -5    7.60    4.60
  -4 -10  -5  113.79   19.30
  -4 -10  -5  114.09   34.60
   4  10   5  132.29   18.20
   4  10   5  102.69   13.50
  -4  10  -5  110.29   25.40
  -5 -10  -5  103.29   37.40
  -5  10  -5   61.99   22.70
   5  10   5   51.59   13.00
  -5 -11   5  107.39   32.50
   5  11  -5  207.98   19.90
   5  11  -5  111.59   18.30
  -5  11   5  144.39   12.20
  -5  11   5  175.38   14.80
   5  11  -5  156.88   23.20
  -5  11   5  144.49   27.00
  -4 -11   5    3.90   20.30
   4  11  -5    4.10    8.00
   4  11  -5  -10.20    6.70
   4  11  -5   -5.50    7.50
  -4  11   5    2.70    4.50
  -4  11   5   -0.80   13.40
  -3 -11   5  651.63   53.59
   3  11  -5  560.44   36.30
   3  11  -5  592.34   36.90
  -3  11   5  437.96   43.70
   3  11  -5  581.14   35.70
  -2 -11   5  276.97   37.60
  -2  11   5  191.58   30.60
   2  11  -5  260.27   21.80
  -2  11   5  236.48   17.10
   2  11  -5  232.08   36.30
   2  11  -5  253.17   23.40
   2  11  -5  233.08   30.80
  -1 -11   5  398.06   41.00
   1  11  -5  408.66   28.30
   1  11  -5  407.26   30.30
   1  11  -5  412.66   28.30
   1  11  -5  447.36   42.20
  -1  11   5  420.66   37.60
  -1  11   5  453.05   26.10
   0 -11   5  734.93   51.19
   0  11  -5  674.93   43.90
   0  11  -5  703.03   39.90
   0  11  -5  654.73   39.20
   0  11   5  671.23   38.00
   0  11   5  631.84   46.70
   0  11  -5  699.33   53.89
   1 -11   5   64.89   20.70
  -1 -11  -5   35.70   13.10
  -1  11  -5   54.49    9.80
  -1  11  -5   48.30    9.80
   1  11   5   36.60   14.40
  -1  11  -5   20.20   14.60
  -1  11  -5   43.40   19.80
   1  11   5   60.49   10.20
   2 -11   5  744.83   50.99
  -2 -11  -5  708.63   47.80
  -2 -11  -5  802.32   61.39
  -2  11  -5  798.52   47.90
   2  11   5  710.43   46.40
  -2  11  -5  690.93   56.39
  -2  11  -5  708.43   41.10
   2  11   5  736.53   41.90
  -2  11  -5  731.83   46.80
   3 -11   5   68.29   21.30
  -3 -11  -5   62.29   29.20
   3  11   5   47.90   13.70
  -3  11  -5   63.99   10.50
  -3  11  -5   89.19   25.40
   3  11   5   64.39   11.10
  -3  11  -5   50.39    8.30
  -4 -11  -5  250.77   48.20
   4  11   5  297.07   25.90
   4  11   5  247.98   31.80
  -4  11  -5  285.17   42.20
  -3 -12   5   81.79   28.30
   3  12  -5   79.99   15.60
  -3  12   5   72.39   10.00
  -3  12   5   63.29   22.10
   3  12  -5   68.19   14.70
   3  12  -5   61.99   12.80
  -2 -12   5   37.30   22.90
   2  12  -5   50.19   12.30
   2  12  -5   44.00   10.80
   2  12  -5   47.70   12.60
  -2  12   5   40.50   13.60
  -2  12   5   38.20   17.30
  -1 -12   5    1.10   18.60
  -1  12   5   -6.60   12.60
  -1  12   5    4.50    5.10
   1  12  -5    3.00    6.20
   1  12  -5   12.20   15.10
   1  12  -5   -3.10    6.60
   0 -12   5    5.80   18.20
   0  12  -5   11.00   15.30
   0  12  -5    9.40   11.20
   0  12  -5    4.60    6.00
   0  12   5   -5.50   11.50
   0  12   5   -0.10    4.90
   0  12  -5   -4.30    5.80
   1 -12   5   19.00   18.30
  -1  12  -5   20.20   17.30
   1  12   5    5.10    6.20
  -1  12  -5   13.70   14.30
  -1  12  -5   24.50   15.00
   1  12   5   26.80   13.90
  -1  12  -5   11.80    7.80
   2 -12   5   20.90   18.50
   2  12   5   39.40   14.20
  -2  12  -5   28.90   20.00
   2  12   5   26.60    8.90
  -2  12  -5   30.70    7.70
  -2  12  -5   41.60    9.50
 -10   0   6  185.68   45.70
  -9   0   6  131.49   35.40
  -8   0   6  153.78   31.20
  -7   0   6  916.61   61.49
  -6   0   6  104.19    8.50
  -6   0   6   97.89   20.50
   6   0  -6   74.19    9.80
   5   0  -6  573.04   36.90
  -5   0   6  658.33   39.20
  -5   0   6  565.84   29.90
   5   0  -6  575.74   30.90
   5   0  -6  518.95   34.40
  -4   0   6  281.07   16.80
   4   0  -6  294.57   22.30
  -4   0   6  287.27   20.60
  -4   0   6  285.67   22.60
   4   0  -6  300.27   17.60
   4   0  -6  315.17   22.00
  -3   0   6   37.40    8.20
   3   0  -6   40.60    7.10
   3   0  -6   45.80    8.70
   3   0  -6   36.30    5.60
  -3   0   6   43.20    7.70
   3   0  -6   20.90   10.80
   2   0  -6 1753.72   82.59
  -2   0   6 1700.23   83.89
   2   0  -6 1647.44   91.29
  -2   0   6 1716.83   82.39
  -2   0   6 1608.74   91.09
  -2   0   6 1733.43   83.59
   2   0  -6 1789.62   83.29
  -1   0   6   46.00   14.70
  -1   0   6   41.90    5.50
  -1   0   6   47.30    6.50
   1   0  -6   60.19    7.30
   1   0  -6   60.49    6.40
   1   0  -6   61.79   15.40
   0   0  -6  148.59   10.10
   0   0   6  165.68   10.90
   0   0   6  150.48   11.10
   0   0  -6  161.78   10.50
   0   0   6  198.58   27.30
   0   0  -6  194.18   24.80
   1   0   6  148.99   28.20
  -1   0  -6   95.39    6.90
   1   0   6   89.39    7.30
  -1   0  -6  120.19   21.40
   1   0   6  107.49   20.60
   2   0   6  165.88   27.40
   2   0   6  142.79    9.40
  -2   0  -6  141.29    8.80
  -2   0  -6  169.08   24.20
   2   0   6  118.09   23.20
  -2   0  -6  104.79   24.10
   3   0   6  315.07   38.30
  -3   0  -6  282.07   28.50
   3   0   6  310.97   16.90
  -3   0  -6  270.87   39.60
   3   0   6  307.87   36.60
  -3   0  -6  298.47   16.50
   4   0   6  200.28   31.10
  -4   0  -6  199.38   12.60
   4   0   6  218.68   12.90
  -4   0  -6  226.18   27.80
  -4   0  -6  231.88   39.00
  -5   0  -6  905.51   73.39
  -5   0  -6  958.10   48.90
  -5   0  -6  882.81   54.99
   5   0   6  868.51   44.20
   5   0   6  792.02   62.99
  -6   0  -6   -5.70   22.40
  -7   0  -6  533.95   74.59
  -7   0  -6  537.15   30.90
  -8   0  -6  183.58   51.19
  -8   0  -6  152.78   14.90
  -9   0  -6  100.29   55.29
 -10  -1   6   71.99   34.30
 -10   1   6   59.09   34.20
  -9  -1   6   41.90   29.40
  -9   1   6  -14.70   21.90
  -8  -1   6   48.80   22.10
  -8   1   6   39.90   22.70
   7   1  -6  346.77   24.30
  -7   1   6  363.66   41.80
   7   1  -6  336.97   23.30
  -6  -1   6    9.30   12.10
   6  -1  -6    9.50    4.50
   6  -1  -6   10.40   10.10
   6   1  -6    6.50    4.60
  -6   1   6   -7.80   10.10
  -5  -1   6 1605.94   73.59
   5  -1  -6 1604.44   78.49
   5  -1  -6 1511.75   78.89
  -5  -1   6 1543.75   82.19
   5  -1  -6 1505.05   73.69
  -5   1   6 1444.66   72.49
   5   1  -6 1427.86   78.09
   5   1  -6 1482.65   80.29
   5   1  -6 1497.95   74.29
  -5   1   6 1432.66   81.89
  -5   1   6 1544.65   80.89
   4  -1  -6  326.27   27.70
  -4  -1   6  287.97   23.00
   4  -1  -6  287.17   17.40
   4  -1  -6  330.07   21.50
  -4  -1   6  314.57   17.40
  -4   1   6  293.87   20.80
  -4   1   6  260.07   16.40
   4   1  -6  278.77   22.30
  -4   1   6  269.07   21.80
   4   1  -6  285.07   17.70
   4   1  -6  308.17   24.20
   3  -1  -6 1309.47   75.89
  -3  -1   6 1357.36   67.49
   3  -1  -6 1296.77   66.79
  -3  -1   6 1310.97   75.39
  -3  -1   6 1285.77   70.49
   3  -1  -6 1370.36   69.09
   3  -1  -6 1362.06   68.49
   3   1  -6 1482.25   69.39
   3   1  -6 1450.05   70.59
  -3   1   6 1435.26   66.89
  -3   1   6 1365.76   69.49
  -3   1   6 1399.06   69.39
   3   1  -6 1384.86   67.19
   3   1  -6 1431.46   72.89
   2  -1  -6 3689.43  164.78
   2  -1  -6 3697.13  173.58
  -2  -1   6 3388.96  172.38
  -2  -1   6 3513.45  163.08
   2  -1  -6 3448.46  162.88
  -2  -1   6 3606.54  164.38
  -2  -1   6 3544.95  165.68
   2   1  -6 3447.76  169.98
  -2   1   6 3283.07  163.58
   2   1  -6 3412.66  163.68
   2   1  -6 3310.57  163.08
  -2   1   6 3377.16  164.58
  -1  -1   6   47.60    6.30
   1  -1  -6   40.40   13.60
  -1  -1   6   43.40    5.80
  -1  -1   6   52.59   14.00
   1  -1  -6   58.99    8.20
   1  -1  -6   48.10    6.20
   1   1  -6   58.19    6.50
  -1   1   6   63.89    6.10
  -1   1   6   53.79    7.80
   1   1  -6   75.19   15.30
   0  -1   6 1847.82   88.09
   0  -1   6 1817.12   98.09
   0  -1  -6 1851.71   87.69
   0  -1  -6 1926.71   99.39
   0   1   6 1779.22   88.19
   0   1  -6 1901.31   87.99
   0   1   6 1861.61   87.39
   0   1  -6 1842.52   96.49
   0   1   6 1668.93  100.19
  -1  -1  -6  859.11   56.39
  -1  -1  -6  918.41   40.80
   1  -1   6  858.51   53.19
  -1  -1  -6  941.31   55.29
   1  -1   6  931.61   42.40
   1  -1   6  809.12   61.19
   1   1   6  770.22   53.89
  -1   1  -6  721.63   49.60
  -1   1  -6  737.83   41.00
   1   1   6  782.52   40.70
   2  -1   6 1811.22  101.79
  -2  -1  -6 1892.51   88.69
  -2  -1  -6 1849.81  103.09
   2  -1   6 1951.30  109.79
  -2  -1  -6 1905.61  106.89
   2  -1   6 1880.51   89.59
   2   1   6 1746.73  102.29
  -2   1  -6 1891.21   99.09
   2   1   6 1738.53   88.09
   2   1   6 1970.60   88.89
  -2   1  -6 1957.90   88.59
   2   1   6 1852.41  102.39
  -3  -1  -6 1944.71   92.69
  -3  -1  -6 2048.40  108.49
   3  -1   6 2001.50   93.09
  -3  -1  -6 1958.30  113.59
   3  -1   6 1930.01  107.59
   3  -1   6 1967.50  112.19
   3   1   6 1758.82  106.69
   3   1   6 1794.42   92.09
  -3   1  -6 2040.30  103.19
   3   1   6 1957.50  107.59
  -3   1  -6 1877.21  115.79
   3   1   6 2019.00   92.79
  -3   1  -6 2048.40   92.09
  -4  -1  -6   49.80   17.70
  -4  -1  -6   51.69   22.10
   4  -1   6   66.39   21.10
   4  -1   6   45.70    5.90
  -4  -1  -6   46.80    6.30
   4   1   6   59.49    6.70
  -4   1  -6   50.49    5.10
  -4   1  -6   45.60   21.90
  -4   1  -6   45.30   12.90
   4   1   6   52.09    6.70
   5  -1   6  467.75   51.69
  -5  -1  -6  537.95   28.90
  -5  -1  -6  525.65   41.80
  -5  -1  -6  573.84   55.29
   5   1   6  518.15   27.90
  -5   1  -6  541.45   70.19
  -5   1  -6  536.95   27.60
  -5   1  -6  477.95   36.30
   5   1   6  540.65   28.70
  -6  -1  -6    5.40    4.70
  -6  -1  -6   13.40   24.60
   6  -1   6   -2.60   25.90
   6  -1   6    9.60    8.30
  -6   1  -6    0.10    9.20
  -6   1  -6    3.60    3.60
  -6   1  -6    4.20   22.60
  -7  -1  -6   36.30   33.30
  -7  -1  -6   55.59   10.50
  -7   1  -6   43.60    7.80
  -7   1  -6   23.70   32.60
  -8  -1  -6    2.30    6.10
  -8  -1  -6   26.00   37.10
  -8   1  -6   10.90    6.00
  -8   1  -6   -2.50   33.20
  -9  -1  -6    3.60   41.30
  -9   1  -6   -7.40   42.60
 -10  -2   6  125.29   36.40
 -10   2   6   67.99   36.00
  -9  -2   6  105.39   31.50
  -9   2   6  166.58   37.60
  -8  -2   6   87.79   26.10
  -8   2   6  103.39   27.80
  -7  -2   6  563.34   47.00
  -7   2   6  585.04   46.70
   7   2  -6  581.34   34.20
   7   2  -6  611.84   35.80
   6  -2  -6   52.39   13.80
  -6  -2   6   56.79   16.60
   6   2  -6   39.10    8.90
  -6   2   6   41.10    5.60
   6   2  -6   48.60    8.50
  -6   2   6   67.39   13.50
  -6   2   6   54.69   15.50
  -5  -2   6  248.88   16.00
   5  -2  -6  254.17   23.00
   5  -2  -6  231.08   20.20
  -5  -2   6  264.77   25.30
   5  -2  -6  228.18   15.60
   5   2  -6  295.57   17.60
  -5   2   6  256.97   14.80
  -5   2   6  245.08   22.40
  -5   2   6  259.47   20.80
   5   2  -6  282.87   31.30
   4  -2  -6  134.79   12.80
  -4  -2   6  170.68   20.70
   4  -2  -6  124.69    9.10
  -4  -2   6  131.09    9.70
   4  -2  -6  134.59   12.70
  -4   2   6  100.59    8.40
   4   2  -6   97.59    9.40
  -4   2   6  111.79   14.90
   4   2  -6  128.99   18.00
   4   2  -6   89.49   13.40
  -4   2   6   93.89   13.60
   3  -2  -6   27.10    6.20
  -3  -2   6   22.80   10.90
  -3  -2   6   17.60    7.50
   3   2  -6   32.40    6.30
  -3   2   6   36.80    8.50
  -3   2   6   25.00    6.60
   3   2  -6   36.60    7.80
  -3   2   6   23.10    4.70
   3   2  -6   39.80    9.80
   3   2  -6   18.70    7.20
  -2  -2   6   40.20   12.40
  -2  -2   6   30.40    8.20
   2  -2  -6   32.10    4.50
   2  -2  -6   33.90    7.10
  -2  -2   6   35.30    4.90
   2   2  -6   50.69    7.00
  -2   2   6   57.19    6.60
  -2   2   6   56.79    7.10
   2   2  -6   58.69    8.40
   2   2  -6   51.89   10.40
  -2   2   6   50.09    9.00
   1  -2  -6  158.68   10.90
   1  -2  -6  155.28   13.50
  -1  -2   6  159.28   21.00
   1   2  -6  243.28   19.20
   1   2  -6  214.08   12.60
  -1   2   6  210.68   14.80
   1   2  -6  225.78   12.30
   0  -2  -6 2760.02  129.89
   0  -2   6 2765.82  139.49
   0  -2  -6 2684.03  130.99
   0  -2   6 2858.01  130.89
   0   2   6 2687.33  139.79
   0   2  -6 2982.20  138.49
   0   2   6 2856.71  132.09
   0   2   6 2685.13  129.89
   0   2  -6 2706.03  132.19
  -1  -2  -6    9.90   11.60
  -1  -2  -6   13.40    3.80
  -1  -2  -6   13.60    3.10
  -1  -2  -6   21.00   13.60
   1  -2   6   16.90   10.50
   1  -2   6   16.60    3.90
  -1   2  -6   36.70   10.20
   1   2   6   16.70    4.00
   1   2   6   25.20    3.70
   1   2   6   20.20   11.30
  -1   2  -6   25.10    4.60
  -2  -2  -6  557.04   42.00
  -2  -2  -6  490.15   27.80
   2  -2   6  520.05   28.30
  -2  -2  -6  454.05   41.50
  -2  -2  -6  578.74   28.00
   2  -2   6  501.95   38.70
   2  -2   6  523.95   49.70
  -2   2  -6  605.94   37.10
  -2   2  -6  544.05   27.70
   2   2   6  526.45   27.60
   2   2   6  595.54   40.10
   2   2   6  569.74   27.80
  -3  -2  -6  622.54   48.40
   3  -2   6  684.03   47.50
   3  -2   6  625.24   33.80
   3  -2   6  672.63   55.29
  -3  -2  -6  688.73   52.49
   3   2   6  619.64   33.10
   3   2   6  672.63   33.40
  -3   2  -6  715.93   32.60
  -3   2  -6  596.74   41.10
   3   2   6  654.63   46.50
   4  -2   6  363.06   36.70
   4  -2   6  358.16   21.20
  -4  -2  -6  436.06   53.29
  -4  -2  -6  425.66   46.20
  -4  -2  -6  378.36   21.90
   4   2   6  389.56   21.20
  -4   2  -6  414.66   56.49
   4   2   6  381.56   21.40
  -4   2  -6  350.66   28.50
  -4   2  -6  386.16   20.00
  -5  -2  -6 1260.17   88.49
  -5  -2  -6 1225.48   64.19
  -5  -2  -6 1156.68   78.09
   5  -2   6 1163.98   80.99
   5   2   6 1368.86   63.89
  -5   2  -6 1215.48   94.99
  -5   2  -6 1319.27   61.59
  -5   2  -6 1310.07   71.79
   5   2   6 1328.37   63.19
  -6  -2  -6   27.20   26.10
  -6  -2  -6   51.99    8.90
   6  -2   6   50.39   26.80
   6   2   6   52.59    7.30
  -6   2  -6   48.90    6.60
  -6   2  -6   30.70   11.60
   6   2   6   52.99    9.10
  -6   2  -6   52.09   32.80
  -7  -2  -6  655.03   37.70
   7  -2   6  484.65   62.09
  -7   2  -6  597.64   42.70
   7   2   6  697.53   37.10
  -7   2  -6  579.34   82.59
  -8  -2  -6  165.78   50.19
  -8  -2  -6  160.38   19.20
   8   2   6  194.28   17.80
  -8   2  -6  132.69   51.79
  -9  -2  -6   77.99   49.00
  -9  -2  -6   75.09   14.10
   9   2   6   51.49   13.30
  -9   2  -6   45.40   47.90
 -10  -3   6   16.40   29.20
 -10   3   6   -0.30   35.80
  -9  -3   6   46.90   25.50
  -9   3   6   29.60   30.00
  -8  -3   6   50.59   23.90
  -8   3   6   53.99   24.40
   7  -3  -6  318.27   38.70
  -7  -3   6  344.67   43.10
  -7   3   6  386.66   43.00
   7   3  -6  395.06   36.00
  -7   3   6  366.16   29.90
   7   3  -6  388.06   30.50
   6  -3  -6    1.30    9.60
  -6  -3   6    1.70   12.30
  -6   3   6    7.40    3.00
  -6   3   6    2.90   12.40
  -6   3   6    0.60    7.00
   6   3  -6    1.70    4.70
   6   3  -6    7.60    6.30
   5  -3  -6 1004.50   58.29
   5  -3  -6 1079.99   52.09
  -5  -3   6 1114.59   63.99
   5  -3  -6 1136.59   57.59
  -5   3   6 1182.18   59.69
  -5   3   6 1013.20   59.49
  -5   3   6  945.41   54.09
   5   3  -6 1117.59   55.39
   4  -3  -6 1071.09   52.99
   4  -3  -6 1059.39   55.69
  -4  -3   6 1141.29   62.59
  -4  -3   6 1166.88   55.19
   4  -3  -6 1088.19   58.69
  -4   3   6 1063.09   57.29
  -4   3   6 1103.59   54.09
   4   3  -6 1123.19   55.69
   4   3  -6 1087.89   56.89
  -4   3   6 1101.19   58.89
   4   3  -6 1030.80   60.29
  -3  -3   6 1619.84   81.89
   3  -3  -6 1437.66   80.19
  -3  -3   6 1603.24   74.99
  -3  -3   6 1530.05   80.19
   3  -3  -6 1651.13   73.19
  -3   3   6 1489.75   78.19
   3   3  -6 1471.35   77.69
   3   3  -6 1488.35   75.19
  -3   3   6 1519.05   74.59
   2  -3  -6 4520.35  200.08
   2  -3  -6 4297.87  204.68
  -2  -3   6 4314.07  201.38
  -2  -3   6 4333.17  205.48
  -2  -3   6 4435.56  208.68
   2   3  -6 3896.31  203.08
  -2   3   6 4020.00  204.38
   2   3  -6 4437.46  206.28
  -2   3   6 4450.15  200.78
  -1  -3   6  106.49    8.30
   1  -3  -6  116.99   10.70
  -1  -3   6  106.19   16.50
   1   3  -6   94.89    8.30
  -1   3   6  104.99    7.40
   1   3  -6  115.09   15.20
  -1   3   6  120.69   13.70
   0  -3  -6 2766.22  126.49
   0  -3   6 2621.44  135.49
   0  -3   6 2844.92  127.19
   0  -3  -6 2655.23  127.89
   0   3  -6 2673.53  133.59
   0   3   6 2784.92  129.19
   0   3  -6 2675.83  127.29
   0   3   6 2534.25  131.79
   0   3   6 2635.54  126.29
   1  -3   6  423.36   32.40
  -1  -3  -6  522.15   36.80
  -1  -3  -6  480.65   24.00
   1  -3   6  489.65   23.50
  -1   3  -6  385.76   29.20
   1   3   6  371.26   23.30
   1   3   6  416.76   22.50
   1   3   6  420.76   30.50
  -1   3  -6  405.26   23.10
   2  -3   6 1347.77   79.69
   2  -3   6 1370.16   94.09
  -2  -3  -6 1429.96   69.39
   2  -3   6 1432.56   68.99
  -2  -3  -6 1469.55   69.89
  -2  -3  -6 1596.84   85.99
   2   3   6 1358.16   78.29
   2   3   6 1458.85   68.99
   2   3   6 1344.57   69.09
  -2   3  -6 1440.66   69.09
  -2   3  -6 1512.45   77.59
   3  -3   6 1169.08   80.19
  -3  -3  -6 1109.29   55.29
   3  -3   6 1076.29   54.19
  -3  -3  -6 1187.28   73.49
   3  -3   6 1108.69   71.79
  -3  -3  -6 1075.99   70.09
   3   3   6 1202.48   54.79
   3   3   6 1099.49   66.39
   3   3   6 1144.29   54.79
  -3   3  -6 1052.09   62.29
  -3   3  -6 1019.10   53.29
  -4  -3  -6    4.00   12.90
   4  -3   6    1.20   14.00
  -4  -3  -6   24.90   19.80
  -4  -3  -6   14.40    4.70
  -4   3  -6   11.70    2.60
   4   3   6   11.10    3.90
   4   3   6   11.20    6.20
  -4   3  -6   24.00   10.40
  -5  -3  -6  274.17   19.20
  -5  -3  -6  290.87   40.90
  -5  -3  -6  316.77   48.50
   5  -3   6  274.67   39.10
   5   3   6  295.87   18.80
  -5   3  -6  284.27   28.20
   5   3   6  287.37   17.80
  -5   3  -6  330.07   57.29
  -6  -3  -6   14.00    6.70
  -6  -3  -6   14.70   23.10
   6  -3   6   10.80   26.10
   6   3   6   20.10    5.90
  -6   3  -6    0.30   27.60
  -6   3  -6    4.90    9.20
   6   3   6   23.70    7.70
  -7  -3  -6   20.40    8.40
  -7  -3  -6    5.10   27.90
   7   3   6   20.00    9.10
  -7   3  -6  -14.10   30.00
  -7   3  -6   24.70   13.90
  -8  -3  -6  -10.00   29.10
  -8  -3  -6   13.80    8.10
   8   3   6   11.50   14.30
  -8   3  -6  -18.70   32.70
  -9  -3  -6  -19.90   37.10
  -9   3  -6   15.60   45.80
   9   3   6    3.60    9.70
 -10  -4   6  147.99   42.90
 -10   4   6  178.88   47.40
  -9  -4   6   75.29   30.70
  -9   4   6   91.59   34.50
  -8  -4   6   59.79   24.20
   8   4  -6   40.60   11.90
  -8   4   6   58.79   16.50
  -8   4   6   50.69   27.60
   8   4  -6   34.00   10.70
   7  -4  -6  455.05   35.70
  -7  -4   6  509.35   44.50
   7  -4  -6  350.36   34.70
   7   4  -6  471.85   31.20
   7   4  -6  452.75   29.90
  -7   4   6  476.85   43.80
  -7   4   6  496.35   34.80
   6  -4  -6   22.50   12.80
  -6  -4   6   23.40   13.90
   6  -4  -6   34.90   11.90
  -6   4   6   15.60    9.70
   6   4  -6   33.30    8.20
  -6   4   6   23.80   15.60
   6   4  -6   18.90    8.40
  -5  -4   6  411.06   34.00
  -5   4   6  409.76   28.90
   5   4  -6  412.56   25.20
   5   4  -6  408.36   26.80
  -5   4   6  379.56   29.60
  -5   4   6  403.16   21.90
   4  -4  -6   79.99    5.90
  -4  -4   6   75.29   15.00
  -4  -4   6   78.59   15.50
   4  -4  -6   67.29   13.20
   4   4  -6  103.09   11.60
  -4   4   6   73.39    8.80
   4   4  -6   93.39   13.20
  -4   4   6   54.69   11.70
  -3  -4   6   85.09   14.80
  -3  -4   6   81.89    8.00
  -3  -4   6  101.69   16.90
   3  -4  -6  114.89   15.60
   3  -4  -6   80.79    6.10
  -3   4   6   67.89   11.40
   3   4  -6   94.29   15.20
  -3   4   6   78.19    7.50
   3   4  -6   84.39   12.80
  -2  -4   6  151.68   18.40
  -2  -4   6  138.29   10.10
   2  -4  -6  124.69    8.50
  -2  -4   6  159.98   20.50
  -2   4   6  112.09    8.60
  -2   4   6  146.09   14.50
   2   4  -6  131.19   10.30
   2   4  -6  149.39   17.30
   1  -4  -6   57.39    8.70
  -1  -4   6   48.40   12.80
  -1  -4   6   62.19   11.80
   1  -4  -6   50.69    5.10
  -1  -4   6   75.39   11.00
  -1   4   6   51.99   10.00
   1   4  -6   48.10    6.40
  -1   4   6   49.70    5.50
   1   4  -6   51.79   10.30
   0  -4  -6  368.56   29.50
   0  -4   6  346.17   29.10
   0  -4  -6  377.76   20.80
   0  -4  -6  366.96   22.10
   0  -4   6  378.56   21.10
   0   4  -6  369.06   21.40
   0   4   6  388.36   24.50
   0   4   6  421.96   24.10
   0   4  -6  424.96   28.10
   1  -4   6  123.19    9.00
  -1  -4  -6  119.89   21.90
   1  -4   6  134.49   21.30
  -1  -4  -6  124.99    9.30
   1   4   6  109.69    8.50
  -1   4  -6  120.89    9.30
  -1   4  -6  155.18   20.20
   1   4   6  136.79   18.60
   1   4   6  130.29   10.60
  -2  -4  -6  511.85   27.90
   2  -4   6  531.85   26.80
   2  -4   6  487.05   38.20
  -2  -4  -6  520.95   41.10
  -2  -4  -6  494.95   28.40
  -2   4  -6  502.35   27.20
   2   4   6  505.35   27.90
   2   4   6  536.25   27.30
   2   4   6  500.95   35.30
  -2   4  -6  532.15   34.90
   3  -4   6  368.56   39.40
  -3  -4  -6  374.46   44.00
   3  -4   6  324.07   18.20
   3  -4   6  351.06   50.99
  -3  -4  -6  322.37   20.30
  -3   4  -6  355.76   30.00
   3   4   6  339.87   19.40
   3   4   6  326.37   20.30
   3   4   6  350.66   30.70
  -4  -4  -6  289.07   42.50
  -4  -4  -6  329.47   42.20
   4  -4   6  243.78   38.50
  -4  -4  -6  226.48   17.20
  -4   4  -6  244.38   23.70
   4   4   6  264.07   16.30
   4   4   6  257.37   16.90
  -5  -4  -6  765.82   40.40
  -5  -4  -6  752.62   59.19
  -5  -4  -6  756.02   62.09
   5   4   6  705.23   37.90
  -5   4  -6  687.93   46.60
   5   4   6  679.73   38.40
  -6  -4  -6   29.00    8.20
  -6  -4  -6    4.60   22.50
  -6  -4  -6   19.00   20.80
  -6   4  -6   25.60   12.70
   6   4   6   26.90    8.40
   6   4   6   14.10    6.20
  -7  -4  -6  442.66   68.39
  -7  -4  -6  377.76   28.50
  -7   4  -6  430.66   35.70
   7   4   6  408.56   27.20
  -8  -4  -6  109.19   44.70
  -8  -4  -6   96.19   16.10
   8   4   6  128.79   16.10
  -8   4  -6   65.79   47.60
  -8   4  -6   70.09   19.10
  -9  -4  -6   91.29   51.89
  -9  -4  -6   44.60   13.70
  -9   4  -6   19.20   50.69
   9   4   6   56.99   13.80
  -9  -5   6   61.89   29.70
  -9   5   6   33.60   32.60
  -8  -5   6   79.49   27.00
   8   5  -6   46.20   11.60
  -8   5   6   54.49   28.90
  -8   5   6   35.50   16.00
   8   5  -6   52.99   13.50
  -7  -5   6  274.97   39.70
   7  -5  -6  261.97   29.90
   7   5  -6  281.47   24.00
  -7   5   6  304.77   40.80
  -7   5   6  313.27   27.70
   7   5  -6  267.87   22.70
  -6  -5   6  -15.10   11.40
   6  -5  -6  -13.50   10.60
   6   5  -6   -1.60    5.20
  -6   5   6  -32.10   13.50
   6   5  -6   -3.70    6.20
  -6   5   6   -3.70    7.50
  -5  -5   6  896.01   56.49
  -5  -5   6  929.11   60.19
   5  -5  -6  936.81   57.29
   5   5  -6  932.11   52.29
   5   5  -6  960.10   50.79
   5   5  -6  955.90   52.29
  -5   5   6  944.31   47.30
  -5   5   6 1005.30   55.39
   4  -5  -6  706.83   45.10
  -4  -5   6  714.93   46.00
   4  -5  -6  662.33   35.00
  -4  -5   6  649.04   44.60
  -4   5   6  715.93   42.70
   4   5  -6  675.23   38.10
  -4   5   6  694.83   36.30
   4   5  -6  717.13   41.90
   4   5  -6  716.43   39.80
  -3  -5   6 1390.66   76.19
   3  -5  -6 1334.87   75.29
  -3  -5   6 1352.76   76.39
   3   5  -6 1419.36   69.59
   3   5  -6 1361.96   74.89
  -3   5   6 1426.56   67.39
   3   5  -6 1408.96   73.69
  -2  -5   6 2687.73  139.29
   2  -5  -6 2758.02  136.59
   2  -5  -6 2910.31  132.59
  -2  -5   6 2934.31  146.69
  -2  -5   6 2944.51  134.29
  -2   5   6 2738.03  132.19
   2   5  -6 2911.11  134.59
  -2   5   6 2670.53  140.19
   2   5  -6 2774.92  139.49
  -1  -5   6   45.10   12.90
  -1  -5   6   57.69    8.00
   1  -5  -6   43.10    8.00
  -1  -5   6   51.99   11.80
   1  -5  -6   52.69    6.70
   1   5  -6   48.70   11.50
  -1   5   6   57.59    6.30
   1   5  -6   55.79    6.20
  -1   5   6   68.99   12.00
   1   5  -6   54.09    7.50
   0  -5   6 3731.13  172.38
   0  -5  -6 3648.03  173.68
   0  -5   6 3592.54  182.48
   0  -5  -6 3672.43  172.58
   0   5   6 3640.64  171.68
   0   5  -6 3634.84  180.08
   0   5   6 3783.12  175.68
   0   5  -6 3606.84  172.78
  -1  -5  -6  405.46   22.70
  -1  -5  -6  403.16   33.30
   1  -5   6  443.96   33.90
   1  -5   6  401.36   21.70
  -1  -5  -6  399.76   23.60
   1   5   6  405.76   27.00
  -1   5  -6  375.56   22.00
   1   5   6  358.36   21.40
   2  -5   6  865.31   76.59
   2  -5   6 1006.00   49.30
  -2  -5  -6 1059.59   64.79
   2   5   6  881.31   56.79
  -2   5  -6 1013.50   58.89
   2   5   6 1024.60   51.29
  -2   5  -6 1017.70   49.90
   2   5   6 1044.80   50.29
   3  -5   6 1095.59   82.99
  -3  -5  -6 1030.50   54.09
  -3  -5  -6 1084.59   81.39
   3   5   6 1087.39   53.49
  -3   5  -6 1072.69   61.79
  -3   5  -6 1009.20   51.49
   3   5   6 1024.60   62.39
   3   5   6 1029.90   52.59
  -4  -5  -6    8.20   16.80
  -4  -5  -6    7.30    5.20
  -4   5  -6    7.50    8.80
   4   5   6    5.70    5.20
   4   5   6    9.40    4.40
  -5  -5  -6  481.95   57.29
  -5  -5  -6  358.66   24.50
   5   5   6  364.26   23.40
  -5   5  -6  392.76   32.30
   5   5   6  337.27   22.10
  -6  -5  -6   17.40    7.20
  -6  -5  -6   69.59   30.00
  -6   5  -6    6.30   12.40
   6   5   6   16.80    8.20
   6   5   6   19.10    6.20
  -7  -5  -6   26.70   31.10
  -7  -5  -6   14.60   11.70
  -7   5  -6   14.10   14.80
   7   5   6   16.40    7.30
   7   5   6   26.80   10.10
  -8  -5  -6    2.90   31.60
  -8  -5  -6   25.20   11.50
   8   5   6   -2.90    8.80
  -8   5  -6   12.90   15.10
  -9  -6   6   76.49   32.70
  -9   6   6   69.69   18.80
  -9   6   6   43.30   36.60
  -8  -6   6   95.39   30.50
   8  -6  -6   39.70   20.60
  -8   6   6   43.60   16.20
  -8   6   6   50.09   32.00
   8   6  -6   36.50   22.80
   8   6  -6   40.30   18.30
  -7  -6   6  304.07   44.10
  -7   6   6  399.86   31.80
   7   6  -6  300.57   25.40
   7   6  -6  363.56   27.60
  -6  -6   6   14.60   15.10
   6   6  -6    8.50    8.60
   6   6  -6   13.00    8.20
  -6   6   6   19.60   11.20
  -5  -6   6  191.08   28.90
  -5  -6   6  193.28   28.20
   5   6  -6  184.98   22.00
  -5   6   6  226.98   21.70
  -5   6   6  154.48   13.00
   5   6  -6  186.38   15.90
   5   6  -6  184.78   17.40
  -4  -6   6   52.29   16.60
  -4  -6   6  107.49   20.50
  -4   6   6   90.19    9.60
   4   6  -6   64.19   14.00
  -4   6   6   73.09   15.30
   4   6  -6   77.29   11.40
   3  -6  -6    9.30    3.40
  -3  -6   6   11.00    9.70
  -3  -6   6   -5.60    8.70
   3   6  -6   21.30    9.60
  -3   6   6   17.20    3.80
   3   6  -6   20.90    6.00
   3   6  -6   19.10    6.60
  -3   6   6   10.60    8.20
   2  -6  -6   57.49    7.10
  -2  -6   6   68.19   16.10
  -2  -6   6   96.79   17.00
   2   6  -6   74.59   17.80
   2   6  -6   65.49    8.40
  -2   6   6   69.39   14.00
   2   6  -6   71.39   10.10
  -2   6   6   64.19    6.20
   2   6  -6   65.89    9.40
  -1  -6   6   84.09   14.80
   1  -6  -6   64.29    8.10
   1   6  -6  111.99   17.70
  -1   6   6   77.49   13.80
  -1   6   6   88.79    7.30
   1   6  -6   93.49    7.80
   1   6  -6  115.19   12.30
   0  -6   6  228.68   20.60
   0  -6  -6  211.48   14.60
   0   6  -6  201.78   14.50
   0   6   6  252.87   18.60
   0   6   6  215.28   13.70
   0   6  -6  214.58   21.10
  -1  -6  -6    3.80   10.60
  -1  -6  -6   13.00    4.50
  -1   6  -6    2.40    3.00
  -1   6  -6    7.60    7.10
   1   6   6    5.70    5.00
   1   6   6    1.50    2.50
   1   6   6    3.90    7.20
  -2  -6  -6  355.76   36.10
  -2  -6  -6  423.16   25.20
   2   6   6  430.16   25.20
  -2   6  -6  458.65   32.70
   2   6   6  428.46   23.60
   2   6   6  345.67   29.80
  -2   6  -6  395.06   23.00
  -3  -6  -6  170.98   15.20
  -3  -6  -6  230.88   34.80
   3   6   6  219.88   14.60
  -3   6  -6  201.18   13.60
  -3   6  -6  206.88   26.80
   3   6   6  201.48   27.10
   3   6   6  220.88   16.10
  -4  -6  -6  112.99   29.60
  -4  -6  -6  174.28   19.50
   4   6   6  152.08   14.20
  -4   6  -6  136.29   22.20
   4   6   6  143.69   12.30
  -5  -6  -6  663.53   60.69
  -5  -6  -6  624.14   38.50
  -5  -6  -6  649.83   59.69
   5   6   6  639.04   36.80
   5   6   6  641.44   35.70
  -5   6  -6  642.54   46.10
  -6  -6  -6   25.10    9.10
  -6  -6  -6   33.90   25.10
  -6  -6  -6    7.50   24.80
   6   6   6   22.80    7.10
  -6   6  -6   20.10   13.80
  -7  -6  -6  207.08   49.00
  -7  -6  -6  344.07   27.90
   7   6   6  298.37   22.20
  -7   6  -6  237.28   32.40
   7   6   6  350.66   24.90
  -8  -6  -6   98.39   42.90
  -8  -6  -6   79.19   16.10
   8   6   6   97.39   15.50
  -8   6  -6   71.89   22.30
  -9  -7   6    7.40   26.70
  -9   7   6   38.80   17.10
  -9   7   6   62.39   42.30
  -8  -7   6   29.50   24.60
   8   7  -6   16.80   10.50
  -8   7   6   40.90   17.00
   8   7  -6   28.80   13.70
  -7  -7   6  253.07   42.10
  -7   7   6  178.78   27.10
   7   7  -6  232.38   22.60
   7   7  -6  204.48   22.60
  -6  -7   6    4.70   17.60
  -6  -7   6    3.80   17.20
   6   7  -6   -0.70    7.00
   6   7  -6    6.80    8.50
  -6   7   6   20.80   12.20
  -5  -7   6  530.35   46.70
  -5  -7   6  590.94   48.60
   5   7  -6  697.23   43.60
   5   7  -6  613.64   37.50
  -5   7   6  645.74   43.10
   5   7  -6  683.73   39.50
  -4  -7   6  224.08   30.10
  -4   7   6  256.97   15.00
   4   7  -6  180.68   18.60
   4   7  -6  230.58   16.90
   4   7  -6  229.48   28.10
   4   7  -6  166.28   16.50
  -4   7   6  176.18   24.50
  -3  -7   6  754.32   48.50
   3   7  -6  674.23   41.40
   3   7  -6  675.23   37.60
  -3   7   6  674.93   45.50
   3   7  -6  702.63   50.79
  -3   7   6  745.43   36.30
   3   7  -6  712.53   45.50
  -2  -7   6 1416.06   80.59
   2  -7  -6 1378.66   72.19
  -2   7   6 1526.65   81.19
   2   7  -6 1473.05   75.29
   2   7  -6 1518.55   78.49
   2   7  -6 1533.05   81.49
   2   7  -6 1472.25   73.89
  -2   7   6 1470.65   71.19
   1  -7  -6   59.19    8.60
  -1  -7   6   80.19   16.40
   1   7  -6   64.99   10.70
   1   7  -6   45.60   13.40
   1   7  -6   66.59    8.60
  -1   7   6   59.29    7.10
   1   7  -6   46.00    8.00
  -1   7   6   75.69   15.50
   0  -7   6 1480.95   85.99
   0  -7  -6 1606.54   77.39
   0   7  -6 1499.65   76.29
   0   7   6 1591.04   80.79
   0   7   6 1564.74   75.39
   0   7  -6 1528.65   77.39
   0   7  -6 1493.05   75.39
   0   7  -6 1602.74   85.99
  -1  -7  -6  359.26   36.40
  -1  -7  -6  256.07   18.10
  -1   7  -6  255.37   29.30
  -1   7  -6  273.47   19.70
  -1   7  -6  246.08   16.80
   1   7   6  237.18   19.50
   1   7   6  226.58   20.30
   1   7   6  250.37   16.20
  -2  -7  -6  519.05   45.10
  -2  -7  -6  552.44   32.70
   2   7   6  526.25   32.20
   2   7   6  577.84   30.70
  -2   7  -6  553.94   30.00
   2   7   6  508.05   38.60
  -2   7  -6  519.25   39.90
  -2   7  -6  578.44   30.60
  -3  -7  -6  737.63   57.39
  -3  -7  -6  703.83   45.40
   3   7   6  807.32   42.40
  -3   7  -6  779.32   51.69
  -3   7  -6  727.33   39.00
  -3   7  -6  776.02   39.10
   3   7   6  750.82   40.40
  -4  -7  -6   40.50   10.60
  -4  -7  -6   40.60   23.60
  -4   7  -6   44.60   16.70
   4   7   6   26.00    8.30
   4   7   6   61.59    9.30
  -5  -7  -6  325.87   51.49
  -5  -7  -6  254.57   22.70
  -5   7  -6  265.37   34.00
   5   7   6  287.67   19.80
  -6  -7  -6   -4.60   23.70
  -6  -7  -6    6.20   25.60
  -6  -7  -6   -1.40    7.00
   6   7   6   -2.30    7.70
  -6   7  -6    4.90   13.60
   6   7   6    5.50    5.70
  -7  -7  -6  -11.70   30.90
  -7  -7  -6   17.00   28.40
  -7  -7  -6   16.10   11.10
  -7   7  -6   14.70   24.70
   7   7   6   28.30   10.80
  -8  -8   6   26.20   27.90
  -8   8   6   43.10   18.80
  -7  -8   6  250.07   42.30
   7   8  -6  238.18   20.90
  -7   8   6  191.68   28.40
   7   8  -6  153.18   20.40
   7   8  -6  161.18   21.80
  -6  -8   6    8.10   18.80
   6   8  -6    8.00    7.20
   6   8  -6    1.20    7.50
   6   8  -6   -4.60    7.70
  -6   8   6   -4.30    9.50
  -5  -8   6  164.38   31.10
   5   8  -6  146.69   16.80
   5   8  -6  137.69   19.10
   5   8  -6  144.79   22.60
  -5   8   6   96.49   12.10
  -5   8   6  144.99   23.70
  -4  -8   6   35.60   16.70
  -4   8   6   37.40   14.00
   4   8  -6   16.70    7.70
  -4   8   6   46.00    7.20
   4   8  -6   39.80   14.90
   4   8  -6   30.20    8.50
   4   8  -6   36.90    8.50
  -3  -8   6   -7.20   10.60
  -3   8   6    4.30    3.40
  -3   8   6   -4.80    9.50
   3   8  -6    4.20    5.30
   3   8  -6    2.90    5.90
   3   8  -6   13.10   11.00
   3   8  -6    0.90    4.30
   2  -8  -6   23.10    6.50
  -2  -8   6   19.00   13.70
  -2   8   6   46.60   14.90
   2   8  -6   35.90    7.40
   2   8  -6   38.20   13.70
   2   8  -6   30.20    8.50
   2   8  -6   38.90    7.70
  -2   8   6   29.10    5.50
   1  -8  -6   48.50   13.70
  -1  -8   6   43.00   14.30
  -1   8   6   24.30   10.90
  -1   8   6   32.10    5.70
   1   8  -6   32.70    8.40
   1   8  -6   49.70    9.10
   1   8  -6   37.10   13.00
   0  -8   6  111.99   19.10
   0  -8  -6  105.09   12.60
   0   8  -6  120.39   11.00
   0   8  -6  107.69   20.50
   0   8   6  116.59   17.60
   0   8  -6   93.99   12.20
   0   8  -6   91.39   11.80
   0   8   6  112.39    9.80
   1  -8   6   12.20   11.10
  -1  -8  -6   23.80   14.50
  -1  -8  -6   18.80    6.90
   1   8   6   15.50    5.20
  -1   8  -6   24.70    6.40
  -1   8  -6   25.30    6.60
   1   8   6   21.10    9.30
   1   8   6   16.40    7.90
  -1   8  -6   16.10   10.20
  -2  -8  -6  263.77   36.60
  -2   8  -6  210.58   15.20
   2   8   6  210.88   24.80
   2   8   6  188.98   17.40
   2   8   6  211.08   15.40
  -2   8  -6  231.28   29.60
  -2   8  -6  208.48   15.10
  -3  -8  -6  307.77   41.20
  -3  -8  -6  241.08   19.80
  -3   8  -6  222.28   15.20
   3   8   6  223.18   19.30
  -3   8  -6  212.48   15.40
  -3   8  -6  224.78   30.10
   3   8   6  254.87   17.30
  -4  -8  -6   92.19   31.40
  -4   8  -6  144.79   26.10
   4   8   6  120.59   17.20
   4   8   6  102.59   12.30
  -5  -8  -6  425.46   60.29
  -5  -8  -6  477.25   35.50
   5   8   6  495.25   30.80
   5   8   6  566.94   33.50
  -6  -8  -6   21.40   10.80
  -6  -8  -6   29.00   32.40
   6   8   6   13.90    7.00
  -6   8  -6   20.30   17.20
   6   8   6   31.60   11.70
  -7  -8  -6  133.09   21.00
  -7  -8  -6  124.79   45.40
  -7  -8  -6  189.78   46.60
  -7   8  -6  174.58   29.90
  -7  -9   6  130.79   38.00
   7   9  -6  183.88   21.80
  -7   9   6  147.29   25.90
  -6  -9   6   -1.00   21.20
   6   9  -6   -9.20    7.20
   6   9  -6    0.70    8.60
  -6   9   6    1.60   12.00
   6   9  -6   -8.00    7.40
  -5  -9   6  459.85   69.99
   5   9  -6  399.56   29.50
   5   9  -6  355.86   28.60
   5   9  -6  453.15   29.90
  -5   9   6  408.86   25.30
  -5   9   6  460.85   44.80
  -4  -9   6  258.77   37.20
   4   9  -6  254.97   32.80
  -4   9   6  199.88   29.10
   4   9  -6  257.67   19.30
   4   9  -6  211.68   20.10
   4   9  -6  214.38   22.50
  -4   9   6  246.68   16.20
  -3  -9   6  362.16   41.40
   3   9  -6  402.66   35.40
  -3   9   6  354.16   20.90
   3   9  -6  353.76   25.70
  -3   9   6  364.76   33.60
   3   9  -6  336.47   24.50
   3   9  -6  343.47   23.40
  -2  -9   6 1169.38   69.89
   2   9  -6 1128.49   59.99
  -2   9   6 1048.70   67.69
  -2   9   6 1181.78   56.99
   2   9  -6 1123.09   58.49
   2   9  -6 1222.48   70.89
   2   9  -6 1073.79   60.39
   1  -9  -6    2.70    5.30
  -1  -9   6   -8.70   11.70
   1   9  -6    2.60    5.60
   1   9  -6   -0.40    4.80
  -1   9   6   -2.10    9.30
   1   9  -6    4.30   11.20
   1   9  -6    3.10    6.00
   0  -9   6 1005.40   61.19
   0  -9  -6 1002.20   55.19
   0   9  -6  964.20   54.29
   0   9  -6 1016.00   53.59
   0   9   6 1045.50   59.79
   0   9  -6 1034.50   54.19
   0   9  -6 1006.60   64.39
   0   9   6 1058.39   52.49
  -1  -9  -6  225.08   18.90
   1  -9   6  200.58   26.80
  -1   9  -6  210.78   16.60
   1   9   6  217.68   16.00
   1   9   6  229.68   24.90
  -1   9  -6  257.97   33.90
  -1   9  -6  197.68   16.50
  -2  -9  -6  428.06   55.19
  -2  -9  -6  366.56   26.30
  -2   9  -6  369.56   42.80
  -2   9  -6  359.26   22.50
  -2   9  -6  342.67   21.80
   2   9   6  296.27   29.40
   2   9   6  381.26   29.80
   2   9   6  351.76   22.90
  -3  -9  -6  565.84   50.89
  -3  -9  -6  476.85   32.40
  -3   9  -6  429.56   25.60
  -3   9  -6  472.75   40.80
  -3   9  -6  415.16   26.20
   3   9   6  474.15   28.20
   3   9   6  459.85   30.70
  -4  -9  -6    6.90   23.10
  -4  -9  -6    6.70    8.10
  -4   9  -6    9.10   13.50
   4   9   6   11.10    8.50
   4   9   6    8.10    5.70
  -5  -9  -6  227.88   47.10
   5   9   6  191.28   19.60
   5   9   6  167.48   16.70
  -5   9  -6  215.18   33.70
  -6  -9  -6    5.50   30.20
  -6  -9  -6    1.90   10.50
   6   9   6    2.00    9.70
  -6   9  -6    8.10   18.00
  -6 -10   6  -19.70   20.30
  -6  10   6    7.00   15.90
   6  10  -6   15.00   10.40
  -5 -10   6  120.79   29.30
   5  10  -6  116.99   16.40
   5  10  -6   91.59   15.20
  -5  10   6  110.19   22.80
  -5  10   6  137.49   14.40
   5  10  -6   92.59   17.20
  -4 -10   6   51.59   26.60
   4  10  -6   38.50   10.90
  -4  10   6   45.60   17.10
   4  10  -6   44.70   15.70
  -4  10   6   38.10   12.10
   4  10  -6   47.70   11.70
  -3 -10   6    2.70   15.50
  -3  10   6   26.90   16.80
   3  10  -6   -4.00    6.00
   3  10  -6   -2.30    5.50
  -3  10   6    3.20    4.00
   3  10  -6  -13.30    6.60
   3  10  -6   -0.10   11.90
  -2 -10   6   21.30   16.30
   2  10  -6   41.30   10.10
  -2  10   6   27.60    6.30
   2  10  -6   14.60    6.80
   2  10  -6   22.00    8.70
   2  10  -6   22.90   22.50
  -1 -10   6   19.40   15.60
   1  10  -6   -0.30    4.90
   1  10  -6    3.20    5.40
   1  10  -6    2.70    6.70
   1  10  -6   -7.00   12.80
  -1  10   6    9.10    4.60
   0 -10  -6   65.49   13.30
   0 -10   6   76.39   19.80
   0  10  -6   69.69   12.60
   0  10   6   87.79   18.60
   0  10   6   67.89   10.30
   0  10  -6   94.59   22.70
   0  10  -6   75.29   11.40
   0  10  -6   77.39   11.80
   1 -10   6   -6.40   11.90
  -1 -10  -6    0.40    6.20
  -1  10  -6    1.40    4.70
  -1  10  -6    4.00   11.20
   1  10   6    0.60    4.30
  -1  10  -6    5.50    5.80
   1  10   6    7.10    9.20
   2 -10   6  198.48   26.80
  -2 -10  -6  134.89   20.30
  -2 -10  -6  183.18   34.30
   2  10   6  150.48   14.30
   2  10   6  152.48   20.70
   2  10   6  132.29   21.70
  -2  10  -6  171.28   29.80
  -2  10  -6  166.88   13.90
  -2  10  -6  162.48   14.40
  -3 -10  -6  122.19   33.10
  -3 -10  -6  112.99   19.00
  -3  10  -6  149.49   27.90
  -3  10  -6  100.09   12.40
   3  10   6  108.49   17.00
  -3  10  -6  118.59   12.30
   3  10   6  129.49   15.00
  -4 -10  -6   88.49   19.10
  -4 -10  -6   77.09   32.60
  -4  10  -6   89.39   24.00
   4  10   6   77.29   12.10
   4  10   6   83.49   15.90
  -5 -10  -6  209.88   47.60
  -5  10  -6  234.08   38.80
   5  10   6  329.57   26.40
  -5 -11   6  274.07   45.70
  -5  11   6  219.68   34.10
  -5  11   6  283.57   20.40
   5  11  -6  311.97   24.80
   5  11  -6  206.58   26.50
   5  11  -6  272.67   26.30
  -4 -11   6  147.99   32.70
   4  11  -6  104.09   16.60
  -4  11   6  127.49   12.20
   4  11  -6   94.79   17.20
   4  11  -6  123.29   17.20
  -4  11   6   94.59   24.20
  -3 -11   6  258.57   43.90
  -3  11   6  318.57   23.40
  -3  11   6  264.77   36.90
   3  11  -6  320.47   24.90
   3  11  -6  326.57   25.50
   3  11  -6  336.27   42.70
   3  11  -6  302.47   25.20
  -2 -11   6  772.62   57.59
   2  11  -6  792.42   57.69
   2  11  -6  722.33   48.90
   2  11  -6  728.73   44.70
  -2  11   6  751.42   54.09
  -2  11   6  750.52   40.20
   2  11  -6  711.63   43.40
  -1 -11   6   60.19   22.20
   1  11  -6   71.99   22.40
  -1  11   6   51.99   18.80
   1  11  -6   33.60   11.60
   1  11  -6   42.80   10.80
   1  11  -6   38.20    9.80
  -1  11   6   45.40    8.50
   0 -11   6  790.62   54.39
   0  11  -6  701.73   42.40
   0  11   6  763.52   41.50
   0  11   6  783.92   51.79
   0  11  -6  748.93   42.90
   0  11  -6  748.73   46.80
   0  11  -6  683.13   55.99
  -1 -11  -6   42.60   13.30
   1 -11   6   52.79   20.80
  -1  11  -6   74.29   17.40
  -1  11  -6   55.69   10.60
   1  11   6   51.69    9.90
  -1  11  -6   63.49   20.20
  -1  11  -6   74.69   11.30
   1  11   6   77.89   19.40
  -2 -11  -6  372.46   48.70
  -2 -11  -6  219.08   27.00
   2 -11   6  277.17   33.90
  -2  11  -6  309.67   21.80
  -2  11  -6  381.86   46.80
  -2  11  -6  295.87   20.60
   2  11   6  299.27   21.90
   2  11   6  304.17   27.50
   3 -11   6  211.38   30.70
  -3 -11  -6  213.58   43.00
   3  11   6  221.38   18.60
   3  11   6  255.37   24.00
  -3  11  -6  179.18   33.30
  -3  11  -6  173.58   16.20
  -3  11  -6  188.08   15.00
  -4 -11  -6   37.70   31.90
  -4  11  -6   30.20   20.10
   4  11   6   22.00   11.40
  -3 -12   6    6.40   22.30
   3  12  -6  -15.00    7.90
  -3  12   6   -2.90    4.90
  -3  12   6    0.50   14.70
   3  12  -6  -10.20    9.10
  -2 -12   6   19.90   23.30
  -2  12   6   30.40   16.50
   2  12  -6    6.40    8.10
   2  12  -6   12.50    9.20
   2  12  -6    3.60    9.50
  -2  12   6   20.60    8.70
  -1 -12   6    9.30   20.50
  -1  12   6    9.20    5.40
   1  12  -6    6.60   10.10
   1  12  -6   18.00    8.40
  -1  12   6    7.40   13.60
   1  12  -6   28.00   18.10
   1  12  -6   19.90    8.70
   0 -12   6   46.20   22.30
   0  12  -6   56.89   21.80
   0  12  -6   78.59   12.90
   0  12  -6   61.89   15.90
   0  12  -6   67.19   12.70
   0  12   6   41.70   15.90
   0  12   6   61.79   10.10
   1 -12   6    8.50   18.60
  -1  12  -6   -4.30   14.00
  -1  12  -6    0.20    6.40
   1  12   6   -0.80   10.30
  -1  12  -6   -1.20    5.60
  -1  12  -6    6.60   13.00
   1  12   6    2.20    5.80
   2 -12   6  124.49   27.50
  -2  12  -6  125.79   29.00
   2  12   6  121.09   20.40
  -2  12  -6  114.09   14.70
  -2  12  -6  114.39   13.30
   2  12   6  122.79   15.30
 -10   0   7   43.20   30.10
  -9   0   7  210.98   39.80
  -8   0   7    9.70   17.40
  -7   0   7  226.88   32.50
  -6   0   7  208.48   28.10
  -6   0   7  218.48   14.20
   6   0  -7  205.78   15.40
  -5   0   7    2.10    2.50
  -5   0   7   -6.50    6.80
   5   0  -7    0.10    5.90
   5   0  -7    2.30    3.50
   5   0  -7   -2.80    6.50
  -4   0   7   87.39   13.10
   4   0  -7   95.49   10.80
  -4   0   7   78.89    7.70
   4   0  -7   78.79   11.90
  -4   0   7  117.59   16.40
   4   0  -7   80.59   17.30
   4   0  -7  110.59   14.60
   3   0  -7   29.60    5.60
  -3   0   7   39.90    6.50
  -3   0   7   51.19    9.90
   3   0  -7   28.30    6.80
  -3   0   7   44.60    8.70
   3   0  -7   49.90    9.40
   3   0  -7   24.50   12.20
   2   0  -7  311.27   19.20
   2   0  -7  315.27   29.60
  -2   0   7  337.77   19.00
  -2   0   7  324.87   20.90
   2   0  -7  319.57   18.70
  -2   0   7  300.27   19.40
  -2   0   7  302.87   29.90
   1   0  -7  100.99    8.60
  -1   0   7  102.49    8.70
   1   0  -7  103.29   21.00
   1   0  -7   98.69    8.30
  -1   0   7  100.19   21.00
  -1   0   7   91.19    8.40
   0   0  -7 1182.88   68.49
   0   0   7 1172.78   56.19
   0   0  -7 1108.39   55.29
   0   0   7 1069.19   68.29
   0   0   7 1111.89   55.19
   1   0   7  431.86   39.00
   1   0   7  501.15   25.70
  -1   0  -7  444.26   37.70
   1   0   7  443.66   43.80
   2   0   7  161.98   30.70
  -2   0  -7  132.39    9.30
  -2   0  -7  160.28   33.00
   2   0   7  160.38   10.30
  -2   0  -7  102.89   21.50
   2   0   7  212.28   30.30
  -3   0  -7  954.50   67.99
   3   0   7  866.61   42.20
  -3   0  -7  765.12   54.69
   3   0   7  848.42   61.19
   3   0   7  721.03   58.09
  -3   0  -7  848.02   41.50
  -4   0  -7   14.20    3.70
  -4   0  -7   20.40   18.80
   4   0   7    7.50    3.40
   4   0   7   22.80   19.30
  -4   0  -7    4.40   11.30
   4   0   7    3.20    3.10
  -5   0  -7 1035.40   52.59
   5   0   7 1259.77  103.69
  -5   0  -7  925.41   63.79
  -5   0  -7 1064.69   84.19
   5   0   7 1039.00   52.19
   5   0   7 1119.99   52.69
  -6   0  -7  672.83   83.89
  -6   0  -7  543.65   29.90
  -6   0  -7  518.85   40.80
   6   0   7  474.15   55.29
  -7   0  -7  165.08   14.30
  -8   0  -7  434.76   36.80
  -8   0  -7  376.76   71.49
  -9   0  -7    1.10    7.10
   9   0   7   18.90   10.00
  -9   0  -7   25.40   45.40
 -10  -1   7    6.70   27.30
 -10   1   7   28.60   30.70
  -9  -1   7  244.48   43.90
  -9   1   7  214.68   38.00
  -8  -1   7    5.50   20.10
  -8   1   7    5.00   18.20
  -7  -1   7  534.85   44.00
   7   1  -7  524.15   31.70
  -7   1   7  526.45   28.80
   7   1  -7  539.05   33.00
  -7   1   7  598.14   44.40
   6  -1  -7  270.87   24.90
  -6  -1   7  275.87   17.30
   6  -1  -7  258.07   17.90
  -6  -1   7  306.77   28.80
   6   1  -7  261.67   18.60
  -6   1   7  318.37   45.90
  -6   1   7  280.77   19.80
   5  -1  -7  609.64   32.70
  -5  -1   7  577.54   31.80
  -5  -1   7  550.54   40.00
   5  -1  -7  576.24   36.70
  -5   1   7  602.14   31.40
   5   1  -7  607.34   38.80
   5   1  -7  616.94   33.10
  -5   1   7  633.54   39.10
  -5   1   7  615.64   37.20
   4  -1  -7 2972.70  140.89
   4  -1  -7 3063.69  141.49
   4  -1  -7 2888.21  138.19
  -4  -1   7 3073.89  144.09
  -4  -1   7 2786.82  137.59
  -4  -1   7 2705.43  146.49
   4  -1  -7 2999.70  149.19
  -4   1   7 2883.51  141.89
   4   1  -7 3023.10  141.69
   4   1  -7 2858.51  138.39
  -4   1   7 2721.33  137.29
  -4   1   7 2841.32  141.59
   4   1  -7 3048.79  145.79
  -3  -1   7   59.89    7.50
   3  -1  -7   61.49   16.10
  -3  -1   7   48.90   10.50
  -3  -1   7   38.70   15.40
   3  -1  -7   48.30    8.40
  -3   1   7   35.70    6.10
   3   1  -7   52.49   10.20
   3   1  -7   56.29    8.30
   3   1  -7   51.39    8.50
   3   1  -7   55.69   13.70
  -3   1   7   46.00    8.70
  -3   1   7   57.19    9.90
  -2  -1   7 4906.71  235.98
  -2  -1   7 4893.21  246.48
   2  -1  -7 5104.49  235.08
   2  -1  -7 5237.98  247.28
  -2  -1   7 5098.59  238.08
  -2  -1   7 4903.61  235.08
   2  -1  -7 5128.69  236.68
   2   1  -7 4954.30  235.28
  -2   1   7 4909.41  236.68
   2   1  -7 5000.30  235.48
  -2   1   7 5048.49  236.28
   2   1  -7 5174.58  244.38
  -2   1   7 5104.79  236.38
  -1  -1   7  727.43   39.30
   1  -1  -7  704.03   39.10
   1  -1  -7  731.53   50.79
  -1  -1   7  755.32   40.00
   1  -1  -7  714.53   40.70
  -1  -1   7  708.43   50.59
   1   1  -7  869.81   42.10
   1   1  -7  886.71   39.50
  -1   1   7  848.12   41.30
   1   1  -7  892.61   50.69
   0  -1   7 1127.29   70.29
   0  -1  -7 1183.28   58.49
   0  -1   7 1285.37   59.49
   0  -1  -7 1245.88   72.09
   0   1  -7 1203.48   58.89
   0   1   7 1223.48   58.49
   0   1   7 1107.29   73.89
   0   1   7 1162.38   59.29
   0   1  -7 1145.89   68.59
   1  -1   7 1841.12   85.99
  -1  -1  -7 1851.21  100.09
   1  -1   7 1483.65  104.69
  -1  -1  -7 1787.92   84.39
   1  -1   7 1710.13   98.29
  -1  -1  -7 1780.22   84.09
   1   1   7 1836.52   84.69
   1   1   7 1816.42   84.79
  -1   1  -7 1899.51   97.09
   1   1   7 1744.23  100.99
   1   1   7 1607.44   98.29
  -1   1  -7 1742.23   84.89
   2  -1   7   59.29   22.70
  -2  -1  -7   81.89   19.80
   2  -1   7   74.79    8.50
   2  -1   7   99.19   21.90
  -2  -1  -7   71.69    6.10
  -2  -1  -7   68.49   22.00
   2   1   7   72.09   20.10
   2   1   7   81.19    6.60
  -2   1  -7   64.79    6.00
   2   1   7   67.69    6.10
   2   1   7   82.59   20.80
  -2   1  -7   82.69   17.50
   3  -1   7 1054.19   55.69
  -3  -1  -7 1172.68   78.79
   3  -1   7 1163.88   78.09
   3  -1   7 1084.09   72.29
  -3  -1  -7 1120.49   55.29
  -3  -1  -7 1122.09   71.89
   3   1   7 1095.09   72.79
   3   1   7 1180.38   72.69
   3   1   7 1092.69   54.59
  -3   1  -7 1128.59   66.89
  -3   1  -7 1186.28   54.89
   3   1   7 1203.78   55.49
  -3   1  -7 1081.09   79.99
  -4  -1  -7  153.08   10.70
   4  -1   7  151.38   11.00
  -4  -1  -7  206.78   39.70
  -4  -1  -7  154.88   27.50
   4  -1   7  129.59   31.70
   4   1   7  144.99   10.60
  -4   1  -7  154.48   10.00
  -4   1  -7  178.68   39.80
   4   1   7  139.19   10.40
  -4   1  -7  143.59   23.00
   5  -1   7   38.50   24.40
  -5  -1  -7   26.20   16.80
  -5  -1  -7   78.59   30.40
  -5  -1  -7   56.69    8.00
  -5   1  -7   49.10    6.50
  -5   1  -7   56.99   17.80
   5   1   7   59.59    8.00
  -5   1  -7   62.69   31.60
   5   1   7   42.80    7.00
  -6  -1  -7   11.80   14.10
   6  -1   7   14.90   27.10
  -6  -1  -7    6.20   25.00
  -6  -1  -7   17.00    6.00
  -6   1  -7    3.20   10.60
   6   1   7   23.50    6.50
  -6   1  -7   26.40   29.60
  -6   1  -7   18.90    5.40
  -7  -1  -7   10.70    5.80
   7  -1   7   15.40   30.00
  -7  -1  -7  -19.90   27.00
  -7   1  -7    5.40   10.90
  -7   1  -7    4.30    4.70
   7   1   7    4.90    7.40
  -8  -1  -7   43.70   40.00
  -8  -1  -7   12.10    7.50
   8   1   7    7.80    8.50
  -8   1  -7   15.20    6.50
  -8   1  -7   20.10   39.20
  -9  -1  -7    1.00    8.00
  -9  -1  -7  -13.40   41.30
  -9   1  -7  -21.40   42.60
   9   1   7   -5.00   17.50
 -10  -2   7   51.79   31.00
 -10   2   7    8.00   28.20
  -9  -2   7  204.58   39.90
  -9   2   7  178.48   37.50
  -8  -2   7  -13.90   15.70
  -8   2   7   -6.10   17.70
  -7  -2   7  147.99   28.20
  -7   2   7  128.39    9.80
  -7   2   7  168.08   27.10
   7   2  -7  113.09   14.20
   7   2  -7  132.99   16.70
  -6  -2   7  131.99   22.90
   6  -2  -7  107.69   17.90
  -6   2   7  178.78   25.10
  -6   2   7  141.19   19.80
   6   2  -7  143.79   13.20
  -6   2   7  158.68   10.60
   5  -2  -7   12.70    7.50
  -5  -2   7   14.10    4.80
   5  -2  -7    2.10    3.40
  -5  -2   7   11.70    9.70
  -5   2   7    3.70    6.40
  -5   2   7    8.10    9.00
   5   2  -7    6.30    3.80
  -5   2   7    3.70    2.90
  -4  -2   7   16.30    9.70
   4  -2  -7   29.40    7.80
   4  -2  -7   24.40    5.50
   4  -2  -7   27.10    7.50
  -4  -2   7   29.80    6.10
  -4  -2   7   31.30   14.80
   4   2  -7   36.70    6.20
   4   2  -7   39.70   10.20
   4   2  -7   52.09   12.10
  -4   2   7   57.29   11.50
  -4   2   7   44.90    9.80
  -4   2   7   29.90    5.30
   4   2  -7   37.70    9.40
  -3  -2   7   52.69   11.00
  -3  -2   7   38.20   13.50
   3  -2  -7   39.90    8.40
  -3  -2   7   33.20    4.90
   3   2  -7   10.80    6.80
  -3   2   7   17.70    4.80
   3   2  -7   20.80    6.00
   3   2  -7   24.70    5.80
  -3   2   7   12.70    6.00
  -3   2   7   15.00    6.40
   3   2  -7   20.00    8.20
   2  -2  -7  302.77   16.20
  -2  -2   7  298.07   27.30
   2  -2  -7  320.17   19.90
  -2  -2   7  289.97   16.80
  -2  -2   7  320.47   21.20
   2   2  -7  251.67   17.10
  -2   2   7  220.68   18.00
  -2   2   7  261.27   16.80
  -2   2   7  269.17   17.30
   2   2  -7  270.87   22.90
  -1  -2   7    6.10   10.40
   1  -2  -7   25.30    6.20
  -1  -2   7   22.70    4.50
   1  -2  -7   23.60    4.10
   1   2  -7   22.10    9.70
  -1   2   7   10.50    5.00
   1   2  -7   17.20    4.10
   1   2  -7   13.60    4.20
  -1   2   7    8.80    3.40
   0  -2   7 2249.77  121.49
   0  -2  -7 2382.56  125.39
   0  -2  -7 2238.28  111.19
   0  -2   7 2449.05  112.79
   0   2  -7 2387.36  119.79
   0   2   7 2409.46  110.49
   0   2   7 2317.57  112.39
   0   2   7 2271.97  122.89
   0   2  -7 2296.37  111.79
   1  -2   7 1335.57   78.39
  -1  -2  -7 1381.76   66.09
  -1  -2  -7 1252.37   81.09
  -1  -2  -7 1434.36   66.59
   1  -2   7 1509.75   67.69
  -1  -2  -7 1332.37   80.59
   1   2   7 1345.37   66.09
  -1   2  -7 1378.86   76.09
   1   2   7 1306.07   66.59
  -1   2  -7 1337.27   66.89
   1   2   7 1406.66   79.29
  -2  -2  -7  365.16   20.30
  -2  -2  -7  396.76   38.30
  -2  -2  -7  377.16   20.70
   2  -2   7  383.56   21.10
   2  -2   7  392.56   34.40
  -2  -2  -7  372.16   35.50
   2   2   7  335.67   19.60
  -2   2  -7  371.26   29.50
   2   2   7  324.37   32.20
   2   2   7  355.66   19.70
  -2   2  -7  339.67   19.70
  -3  -2  -7 1455.25   90.89
   3  -2   7 1466.05   94.69
  -3  -2  -7 1427.06   68.59
   3  -2   7 1364.76   69.09
  -3  -2  -7 1416.36   86.09
  -3   2  -7 1361.06   78.19
  -3   2  -7 1346.97   67.39
   3   2   7 1357.26   67.89
   3   2   7 1472.65   83.89
   3   2   7 1501.75   68.49
   4  -2   7   24.10   18.60
   4  -2   7   11.90    4.60
  -4  -2  -7   23.80   16.80
  -4  -2  -7   33.20   21.80
  -4  -2  -7   19.20    5.10
  -4   2  -7   19.10    4.60
  -4   2  -7   20.00   11.40
   4   2   7   23.80    5.20
  -4   2  -7   18.40   21.80
   4   2   7   16.90    4.20
  -5  -2  -7 1265.77   79.49
   5  -2   7 1112.99   80.49
  -5  -2  -7 1104.29   87.19
  -5  -2  -7 1175.38   60.69
  -5   2  -7 1199.28   58.29
  -5   2  -7 1371.26   98.29
   5   2   7 1219.78   59.99
  -5   2  -7 1236.08   69.89
  -6  -2  -7  545.35   47.80
   6  -2   7  412.56   56.89
  -6  -2  -7  557.84   31.60
  -6  -2  -7  618.94   76.19
  -6   2  -7  437.06   38.70
  -6   2  -7  562.04   28.40
   6   2   7  539.15   30.60
  -6   2  -7  479.25   72.99
  -7  -2  -7  148.69   46.10
  -7  -2  -7  170.48   19.00
   7   2   7  175.58   16.20
  -7   2  -7  169.48   12.90
  -7   2  -7  165.88   23.60
  -7   2  -7  281.97   93.39
  -8  -2  -7  382.36   75.39
  -8  -2  -7  368.26   26.90
   8   2   7  368.16   25.90
  -8   2  -7  318.67   68.89
  -9  -2  -7   -9.10   38.00
  -9  -2  -7   -1.40    8.10
   9   2   7    2.00    9.60
  -9   2  -7   27.80   46.30
 -10  -3   7   -7.40   25.30
  -9  -3   7  132.79   33.90
  -9   3   7  191.98   40.70
  -8  -3   7   -4.30   16.90
  -8   3   7    7.20   20.60
  -7  -3   7  476.35   41.60
   7  -3  -7  351.96   33.40
  -7   3   7  455.55   33.40
   7   3  -7  444.86   33.50
  -7   3   7  459.45   40.10
  -7   3   7  409.96   22.90
   7   3  -7  471.45   37.60
   6  -3  -7  264.27   23.30
   6  -3  -7  245.98   28.40
  -6  -3   7  327.57   31.00
  -6   3   7  293.57   32.60
   6   3  -7  297.77   20.40
  -6   3   7  265.67   16.10
   6   3  -7  273.37   21.60
  -6   3   7  290.97   24.30
  -5  -3   7  487.45   26.50
  -5  -3   7  464.75   35.00
   5  -3  -7  449.66   28.80
   5  -3  -7  438.06   24.30
   5   3  -7  440.46   27.00
  -5   3   7  442.56   30.80
  -5   3   7  473.65   31.70
  -4  -3   7 2062.29  109.49
   4  -3  -7 1973.90   98.89
   4  -3  -7 2127.99  105.19
  -4  -3   7 2028.00  100.69
   4  -3  -7 2102.89  101.29
  -4   3   7 1994.90  102.49
   4   3  -7 2121.79  106.79
   4   3  -7 2089.19  103.79
  -4   3   7 2136.99  100.49
   4   3  -7 2262.97  102.09
  -3  -3   7  142.79   20.90
   3  -3  -7  126.59   15.30
   3  -3  -7  108.59    8.20
  -3  -3   7  132.99   18.00
  -3  -3   7  108.19    9.40
   3   3  -7  122.99   10.30
  -3   3   7  122.39   15.20
   3   3  -7  105.09   15.40
   3   3  -7  135.09   16.60
  -3   3   7  117.49   10.00
  -2  -3   7 3277.87  164.48
  -2  -3   7 3307.97  169.08
   2  -3  -7 3485.25  159.08
   2  -3  -7 3319.27  163.48
  -2  -3   7 3343.37  160.38
   2   3  -7 3485.85  161.08
   2   3  -7 3549.34  166.28
  -2   3   7 3522.35  160.08
  -2   3   7 3281.27  163.68
  -1  -3   7  428.06   24.00
   1  -3  -7  414.96   25.70
   1  -3  -7  404.26   22.80
  -1  -3   7  364.26   32.00
  -1   3   7  457.45   24.90
  -1   3   7  392.86   36.10
  -1   3   7  469.95   27.60
   1   3  -7  483.15   31.00
   1   3  -7  473.95   24.70
   0  -3  -7  953.20   49.70
   0  -3   7  934.21   58.79
   0  -3   7  974.90   49.10
   0  -3  -7 1015.80   48.40
   0   3   7  985.50   51.19
   0   3  -7 1014.00   49.50
   0   3  -7  974.60   56.49
   0   3   7  928.21   56.39
   0   3   7 1016.20   48.40
   1  -3   7  813.32   52.29
   1  -3   7  826.22   40.20
  -1  -3  -7  836.62   40.50
  -1  -3  -7  846.82   54.99
   1   3   7  759.82   48.70
   1   3   7  728.53   40.20
  -1   3  -7  788.72   47.90
  -1   3  -7  758.62   40.10
   1   3   7  746.73   39.10
  -2  -3  -7   58.59   19.60
   2  -3   7   45.40   26.20
  -2  -3  -7   73.69    8.00
   2  -3   7   66.09    7.90
  -2  -3  -7   69.89   20.20
   2  -3   7   69.19   18.00
  -2  -3  -7   49.80    7.70
   2   3   7   77.39   18.70
  -2   3  -7   69.49    7.80
  -2   3  -7   80.69   15.90
   2   3   7   60.29    6.00
   2   3   7   61.99    7.70
   3  -3   7  617.44   48.80
   3  -3   7  581.74   59.69
   3  -3   7  624.44   34.20
  -3  -3  -7  717.23   55.99
  -3  -3  -7  634.74   34.70
  -3  -3  -7  649.04   51.29
   3   3   7  631.24   47.30
   3   3   7  702.73   34.40
   3   3   7  696.03   34.50
  -3   3  -7  731.03   44.50
  -3   3  -7  626.74   33.20
  -4  -3  -7   95.49   10.80
  -4  -3  -7  130.49   33.10
   4  -3   7  110.09   26.70
  -4  -3  -7  150.88   30.80
   4   3   7   88.19    8.30
  -4   3  -7   88.79    6.90
   4   3   7   98.79    9.70
  -5  -3  -7   47.60   25.10
  -5  -3  -7    2.20   18.20
  -5  -3  -7   28.00    7.10
   5   3   7   36.30    6.70
  -5   3  -7   26.20   12.50
  -5   3  -7   26.50    4.30
   5   3   7   38.60    7.60
  -6  -3  -7   24.90    7.50
  -6  -3  -7   24.80   26.20
  -6  -3  -7   34.90   21.10
   6   3   7   13.20    7.40
   6   3   7   17.20    5.80
  -6   3  -7  -18.90   28.90
  -6   3  -7    5.30   10.60
  -7  -3  -7   16.50   34.50
  -7  -3  -7   15.00    7.40
  -7   3  -7   14.40   12.90
   7   3   7   19.20    8.20
  -8  -3  -7   -4.40    6.70
  -8  -3  -7   -6.80   35.90
  -8   3  -7    8.20   14.10
  -8   3  -7    5.80   40.20
   8   3   7   14.90   17.70
  -9  -3  -7   -0.40    9.40
  -9  -3  -7  -26.10   40.00
   9   3   7   12.90   11.10
  -9   3  -7   50.19   52.89
 -10  -4   7   -6.00   26.00
 -10   4   7   10.30   32.80
  -9  -4   7  170.78   38.40
  -9   4   7  191.38   40.30
  -8  -4   7   17.90   21.90
   8   4  -7  -10.40    7.70
  -8   4   7    9.70   22.30
   8   4  -7   -4.20    7.40
  -8   4   7   -0.40   10.90
  -7  -4   7  246.98   35.30
   7  -4  -7  204.78   26.20
   7  -4  -7  187.28   26.10
  -7   4   7  234.88   24.80
  -7   4   7  248.58   33.80
   7   4  -7  243.78   21.70
   7   4  -7  244.78   20.10
   6  -4  -7   85.49   16.50
  -6  -4   7  125.79   24.20
   6  -4  -7   97.19   16.40
   6   4  -7   99.19   14.00
  -6   4   7  135.29   22.20
  -6   4   7  106.19   17.90
  -6   4   7  115.29    8.60
   6   4  -7   99.49   13.00
   5  -4  -7   62.49   14.60
   5  -4  -7   56.09   10.20
  -5  -4   7   33.60   13.60
  -5   4   7   32.60   11.30
   5   4  -7   55.49    8.90
  -5   4   7   42.20    7.10
   4  -4  -7    7.70    2.60
  -4  -4   7   -7.80   10.60
  -4  -4   7   17.90    4.90
  -4  -4   7    2.40    8.60
   4   4  -7   -1.10    6.30
  -4   4   7    4.70    6.30
   4   4  -7    7.60    4.30
  -4   4   7    6.30    4.00
   3  -4  -7   75.49    6.30
  -3  -4   7   91.69   18.20
  -3  -4   7   86.69   10.10
   3  -4  -7   97.09   14.50
  -3  -4   7   76.29   16.00
   2  -4  -7  187.48   11.40
  -2  -4   7  190.98   18.10
  -2  -4   7  242.88   26.70
   2  -4  -7  195.38   16.30
  -2  -4   7  199.48   13.20
  -2   4   7  165.78   16.60
  -2   4   7  164.48   11.80
   2   4  -7  183.58   20.80
   2   4  -7  179.88   13.30
   1  -4  -7  104.59   11.00
  -1  -4   7  142.59   17.70
  -1  -4   7  109.19   22.20
  -1  -4   7  120.59    9.70
   1  -4  -7  117.49    8.50
  -1   4   7  110.29    8.40
   1   4  -7  127.89   17.90
   1   4  -7  135.39   10.30
  -1   4   7  143.09   17.00
   0  -4   7 1476.35   72.29
   0  -4  -7 1500.15   71.79
   0  -4  -7 1470.85   73.49
   0  -4   7 1482.95   82.89
   0   4   7 1487.25   71.49
   0   4   7 1492.55   76.59
   0   4   7 1526.65   75.19
   0   4  -7 1432.96   72.59
   0   4  -7 1493.55   79.89
   1  -4   7  788.62   51.69
  -1  -4  -7  748.23   53.19
  -1  -4  -7  776.32   40.00
   1  -4   7  808.02   40.00
  -1  -4  -7  750.92   40.80
   1   4   7  783.42   41.40
   1   4   7  789.02   47.20
   1   4   7  806.42   39.70
  -1   4  -7  824.82   48.60
  -1   4  -7  769.72   40.30
   2  -4   7  225.88   29.20
  -2  -4  -7  240.88   16.30
  -2  -4  -7  238.68   15.20
  -2  -4  -7  339.87   40.90
   2  -4   7  179.58   41.10
   2   4   7  230.88   15.60
   2   4   7  225.98   14.40
   2   4   7  245.38   28.90
  -2   4  -7  225.28   14.80
  -3  -4  -7  977.00   51.69
  -3  -4  -7 1039.90   69.29
   3  -4   7  961.20   48.50
  -3   4  -7  967.40   58.09
  -3   4  -7  963.70   48.30
   3   4   7  993.60   49.60
   3   4   7  956.20   60.89
   3   4   7  960.80   49.00
  -4  -4  -7   14.70   18.10
  -4  -4  -7   11.10   15.30
  -4  -4  -7    1.80    4.10
   4   4   7    0.60    4.50
   4   4   7    1.60    3.10
  -4   4  -7    2.90    2.50
  -4   4  -7    5.10    8.50
  -5  -4  -7  661.03   62.09
  -5  -4  -7  748.33   42.30
  -5  -4  -7  769.02   67.29
  -5   4  -7  739.53   49.90
   5   4   7  819.02   41.30
   5   4   7  756.82   40.40
  -6  -4  -7  384.86   59.19
  -6  -4  -7  458.25   28.70
  -6  -4  -7  450.95   62.49
   6   4   7  393.86   25.60
   6   4   7  455.55   27.50
  -6   4  -7  447.36   36.70
  -7  -4  -7   92.19   15.70
  -7  -4  -7  137.19   43.20
   7   4   7   71.79   11.80
  -7   4  -7   69.79   19.20
  -8  -4  -7  185.28   52.69
  -8  -4  -7  311.87   26.10
  -8   4  -7  222.78   31.10
   8   4   7  292.07   23.60
  -9  -5   7  175.78   40.20
  -9   5   7  126.99   39.80
  -8  -5   7  -13.50   18.00
   8   5  -7    2.60    9.20
   8   5  -7  -12.60    8.30
  -8   5   7    3.60   13.80
  -8   5   7  -29.30   20.40
  -7  -5   7  476.95   46.10
  -7   5   7  457.35   44.70
   7   5  -7  470.35   32.70
   7   5  -7  504.95   34.40
  -7   5   7  603.74   39.60
  -6  -5   7  229.58   32.70
   6   5  -7  215.68   20.70
  -6   5   7  258.47   24.10
   6   5  -7  228.08   19.30
  -5  -5   7  468.05   39.20
  -5  -5   7  531.85   41.10
  -5   5   7  544.25   36.50
   5   5  -7  542.75   34.00
  -5   5   7  551.94   29.70
   5   5  -7  565.24   34.50
   5   5  -7  536.95   32.10
   4  -5  -7 1809.12  102.39
  -4  -5   7 1710.93   98.49
  -4  -5   7 1890.41   99.29
   4  -5  -7 1842.52   87.49
   4   5  -7 2011.40   95.59
  -4   5   7 1879.01   89.99
  -4   5   7 1674.03   94.99
   4   5  -7 1884.01   91.49
  -3  -5   7   44.00    7.10
  -3  -5   7   47.70   14.60
  -3  -5   7   42.60   12.60
   3   5  -7   44.40    7.20
  -3   5   7   37.50   10.10
   3   5  -7   67.79   13.30
  -3   5   7   68.79    8.00
   2  -5  -7 3130.39  143.09
   2  -5  -7 2888.61  148.39
  -2  -5   7 2943.31  154.08
  -2  -5   7 3067.49  144.69
   2   5  -7 3002.40  150.88
   2   5  -7 3145.99  145.39
  -2   5   7 2967.80  142.89
  -2   5   7 3130.79  150.48
  -1  -5   7  416.06   33.40
   1  -5  -7  409.86   24.80
  -1  -5   7  386.06   28.90
   1  -5  -7  398.56   22.00
  -1  -5   7  378.76   22.80
   1   5  -7  395.86   23.40
  -1   5   7  408.36   21.70
   1   5  -7  390.86   29.30
   1   5  -7  397.76   21.10
   0  -5  -7 1425.36   70.39
   0  -5   7 1251.47   74.99
   0  -5   7 1282.87   63.79
   0  -5  -7 1216.18   72.69
   0  -5  -7 1258.17   65.09
   0   5  -7 1315.87   76.39
   0   5   7 1276.97   62.99
   0   5   7 1319.67   71.19
   0   5  -7 1299.47   64.29
  -1  -5  -7 1114.49   55.29
  -1  -5  -7 1152.28   68.49
   1  -5   7 1189.08   54.69
   1   5   7  995.20   59.29
  -1   5  -7 1151.38   63.79
   1   5   7 1127.89   56.79
   1   5   7 1028.50   53.99
  -1   5  -7 1035.80   54.69
   2  -5   7    3.50    3.00
   2  -5   7   -9.90   23.50
  -2  -5  -7   15.10   16.10
  -2   5  -7    2.50    2.90
   2   5   7    3.90    5.10
  -2   5  -7    2.40    6.90
   2   5   7   -7.80    9.50
   2   5   7   10.00    3.50
  -3  -5  -7  688.93   39.60
  -3  -5  -7  806.42   59.29
   3   5   7  658.33   49.60
   3   5   7  828.42   40.00
   3   5   7  725.43   38.40
  -3   5  -7  719.13   37.70
  -3   5  -7  714.63   47.90
  -4  -5  -7   42.70    8.40
  -4  -5  -7   58.89   23.40
  -4  -5  -7   55.29   25.10
   4   5   7   59.69   10.10
   4   5   7   65.49    8.70
  -4   5  -7   40.90   13.80
  -5  -5  -7   84.59   30.50
  -5  -5  -7   52.69   10.50
  -5  -5  -7   85.79   29.70
   5   5   7   78.39   11.40
   5   5   7   67.89    9.70
  -5   5  -7   54.49   16.40
  -6  -5  -7   32.50   25.60
  -6  -5  -7   39.70   10.40
  -6  -5  -7   34.10   30.00
   6   5   7   44.40   10.70
   6   5   7   43.40    8.30
  -6   5  -7   21.80   15.60
  -7  -5  -7    9.20    9.50
  -7  -5  -7    7.60   27.60
   7   5   7   10.50    8.50
  -7   5  -7   -8.10   11.90
  -8  -5  -7    7.40    9.70
  -8  -5  -7   -6.00   35.10
  -8   5  -7   20.20   16.10
   8   5   7    3.30    9.60
  -9  -6   7  149.79   41.20
  -9   6   7  119.79   24.10
  -9   6   7   96.69   38.90
   8  -6  -7  -15.90   15.00
  -8  -6   7    9.70   21.60
   8   6  -7   -8.50    8.80
   8   6  -7  -14.10    8.70
  -8   6   7   -6.30   30.00
  -8   6   7   -2.40   12.80
  -7  -6   7   94.59   26.70
   7   6  -7   75.49   13.70
   7   6  -7  110.49   16.70
  -7   6   7  146.69   24.00
  -6  -6   7  116.29   27.40
   6   6  -7   86.49   14.70
   6   6  -7   97.29   15.10
  -6   6   7  101.09   18.80
  -5  -6   7   -9.40   12.40
  -5  -6   7   -2.30   12.40
   5   6  -7   -1.80    6.90
  -5   6   7    7.10    9.00
  -5   6   7    3.40    4.50
   5   6  -7   -0.90    4.50
   5   6  -7   -1.80    5.20
  -4  -6   7   52.49   16.70
  -4  -6   7   19.70   15.00
  -4   6   7   22.40   10.40
  -4   6   7   36.90    7.40
   4   6  -7   16.80    8.10
   4   6  -7   16.80    9.90
  -3  -6   7   91.29   17.60
   3  -6  -7   87.69    9.10
  -3  -6   7   58.49   17.30
  -3   6   7   93.29    8.30
   3   6  -7   90.29   16.80
   3   6  -7   80.79   10.30
  -3   6   7   96.79   18.00
   3   6  -7   83.79   12.60
  -2  -6   7  150.88   20.90
   2  -6  -7  122.69    9.50
  -2   6   7  164.28   21.70
  -2   6   7  102.99    8.70
   2   6  -7  100.19    9.40
   2   6  -7  129.69   19.20
   2   6  -7  120.59   11.00
  -1  -6   7   -0.40    2.60
  -1  -6   7    2.30    7.10
   1  -6  -7    5.10    3.10
  -1   6   7    7.80    6.90
   1   6  -7   11.40    8.40
   1   6  -7    9.20    3.80
  -1   6   7    9.60    3.20
   1   6  -7   11.00    4.00
   0  -6  -7  766.22   40.20
   0  -6   7  705.73   39.40
   0   6   7  791.22   39.20
   0   6  -7  748.43   48.10
   0   6   7  848.82   44.60
   0   6  -7  725.13   40.20
   1  -6   7  442.96   24.70
  -1  -6  -7  444.06   38.30
  -1  -6  -7  452.75   26.10
  -1   6  -7  466.95   34.10
   1   6   7  443.76   24.80
   1   6   7  467.15   28.00
  -1   6  -7  442.96   25.40
   1   6   7  395.36   29.20
  -2  -6  -7  122.19   28.00
  -2  -6  -7  101.19   11.70
   2   6   7  102.09   12.50
  -2   6  -7   95.79   10.60
  -2   6  -7  122.29   20.20
   2   6   7   74.09   18.40
   2   6   7   89.19    8.80
  -3  -6  -7  854.11   48.90
  -3  -6  -7  976.60   67.99
  -3   6  -7  914.11   57.39
  -3   6  -7  917.01   46.50
   3   6   7  958.00   48.80
   3   6   7  897.91   47.20
  -4  -6  -7   -0.10    5.00
  -4  -6  -7   -0.80   18.90
  -4   6  -7   -0.10    9.90
   4   6   7   -0.50    3.30
   4   6   7    7.30    6.50
  -5  -6  -7  737.03   66.39
  -5  -6  -7  684.13   42.40
  -5  -6  -7  779.82   68.39
  -5   6  -7  781.62   51.89
   5   6   7  769.52   41.40
   5   6   7  680.93   39.60
  -6  -6  -7  344.17   25.80
  -6  -6  -7  231.28   44.50
  -6  -6  -7  330.07   71.69
   6   6   7  346.87   24.70
   6   6   7  289.07   21.50
  -6   6  -7  317.67   38.50
  -7  -6  -7  115.69   42.60
  -7  -6  -7   69.29   16.50
   7   6   7   82.39   12.90
   7   6   7  120.89   16.00
  -7   6  -7   83.79   22.30
  -8  -6  -7  138.29   22.80
  -8  -6  -7  189.68   53.99
   8   6   7  234.28   22.30
  -8   6  -7  179.38   30.60
  -9  -7   7   58.79   30.60
  -9   7   7   84.49   21.40
  -8  -7   7  -14.50   19.90
   8   7  -7   -1.00   11.80
  -8   7   7   15.90   15.90
  -7  -7   7  320.47   46.30
   7   7  -7  360.56   29.30
  -7   7   7  428.36   36.70
   7   7  -7  430.76   31.50
  -6  -7   7   66.19   28.20
  -6  -7   7   71.69   24.20
   6   7  -7   68.29   14.10
  -6   7   7   88.19   19.30
   6   7  -7   65.19   14.10
   6   7  -7   65.29   18.10
  -5  -7   7  330.17   40.60
  -5   7   7  332.07   29.70
  -5   7   7  308.77   21.50
   5   7  -7  347.67   26.10
   5   7  -7  354.36   24.70
   5   7  -7  356.96   29.60
  -4  -7   7  928.81   60.89
  -4   7   7 1023.00   49.00
   4   7  -7  915.81   51.39
   4   7  -7  889.01   52.79
   4   7  -7  959.50   57.29
  -3  -7   7    3.10   11.50
   3   7  -7   22.90    9.00
   3   7  -7   36.20   13.20
  -3   7   7   33.70    5.70
   3   7  -7   22.20    8.40
  -3   7   7   19.80   11.10
   3   7  -7   21.00    6.20
   2  -7  -7 1540.95   75.79
  -2  -7   7 1579.94   85.09
   2   7  -7 1516.15   77.39
   2   7  -7 1615.54   85.69
   2   7  -7 1559.74   75.69
   2   7  -7 1486.35   78.59
  -2   7   7 1530.45   74.79
  -2   7   7 1513.95   84.09
   1  -7  -7  244.28   16.80
  -1  -7   7  234.38   23.90
   1   7  -7  239.98   18.40
   1   7  -7  241.48   17.50
   1   7  -7  261.87   25.50
   1   7  -7  247.18   15.80
  -1   7   7  250.37   15.60
  -1   7   7  283.37   24.00
   0  -7  -7  660.93   36.40
   0  -7   7  722.93   44.00
   0   7  -7  642.34   36.10
   0   7   7  670.93   34.90
   0   7  -7  607.14   36.60
   0   7   7  668.23   40.70
   0   7  -7  681.23   45.10
  -1  -7  -7  798.72   44.50
  -1  -7  -7  825.62   56.49
  -1   7  -7  802.52   47.20
   1   7   7  761.82   46.50
   1   7   7  861.91   43.00
  -1   7  -7  851.71   53.59
   1   7   7  865.61   46.80
  -2  -7  -7   35.10    8.60
  -2  -7  -7   42.10   21.50
   2   7   7   32.30    6.40
  -2   7  -7   28.40    6.50
   2   7   7   18.20    7.30
   2   7   7   12.40   12.70
  -2   7  -7   23.90   13.20
  -2   7  -7   25.80    6.40
  -3  -7  -7  510.35   47.80
  -3   7  -7  430.26   26.00
   3   7   7  454.35   27.10
  -3   7  -7  506.85   39.10
   3   7   7  475.65   29.30
  -3   7  -7  480.85   26.40
  -4  -7  -7   44.50   25.10
  -4  -7  -7   16.80    6.70
   4   7   7   33.90    9.50
   4   7   7   38.30    7.50
  -4   7  -7   18.30   13.90
  -5  -7  -7   62.39   29.10
  -5  -7  -7   55.19   11.50
   5   7   7   58.49   11.90
   5   7   7   39.10    8.40
  -5   7  -7   63.19   20.70
  -6  -7  -7   -4.30   24.40
  -6  -7  -7   13.30   27.30
  -6  -7  -7    7.30    8.30
   6   7   7   -3.80    9.10
  -6   7  -7   11.20   16.00
   6   7   7   10.00    6.60
  -7  -7  -7  -12.10   30.00
  -7  -7  -7  -21.60   29.40
  -7  -7  -7    2.20   10.40
  -7   7  -7    5.50   14.90
   7   7   7    2.90    9.10
  -8  -8   7   -6.70   23.30
  -8   8   7   -0.20   13.80
  -7  -8   7   61.29   27.30
  -7   8   7   69.89   19.50
   7   8  -7   34.50   11.90
   7   8  -7   61.39   14.20
  -6  -8   7   34.20   22.70
   6   8  -7   51.59   12.10
   6   8  -7   19.90    9.30
   6   8  -7   44.30   12.00
  -6   8   7   45.00   28.80
  -5  -8   7   -4.90   15.10
  -5   8   7    6.60   12.00
   5   8  -7    3.60    6.70
  -5   8   7   -0.10    5.20
   5   8  -7   -4.70    6.30
   5   8  -7    1.40   10.70
  -4  -8   7    7.40   15.00
   4   8  -7   -4.90    5.80
   4   8  -7   -5.50    4.20
  -4   8   7   11.20    5.00
  -4   8   7   -5.80    8.30
   4   8  -7   -5.40    5.30
   4   8  -7    8.50   10.90
  -3  -8   7   58.99   17.70
   3   8  -7   28.10    8.70
   3   8  -7   37.40    8.90
   3   8  -7   15.20   12.40
   3   8  -7   34.90   10.00
  -3   8   7   15.20   12.20
  -3   8   7   29.70    6.10
  -2  -8   7   88.19   19.50
   2  -8  -7   91.89   11.80
   2   8  -7   91.99   13.10
   2   8  -7  156.58   24.00
   2   8  -7  123.19   12.90
   2   8  -7  113.09   15.20
  -2   8   7   87.89   18.40
  -2   8   7   96.19    9.10
  -1  -8   7   18.80   12.90
   1  -8  -7   19.00   10.80
   1   8  -7   13.80    5.70
   1   8  -7   17.00    6.40
   1   8  -7   30.40    7.60
  -1   8   7   18.60    4.90
  -1   8   7    8.50    9.40
   1   8  -7   21.60   11.50
   0  -8  -7  251.67   19.10
   0  -8   7  256.67   26.20
   0   8   7  266.07   17.10
   0   8  -7  242.58   18.30
   0   8   7  291.07   23.90
   0   8  -7  260.87   19.30
   0   8  -7  280.17   33.40
  -1  -8  -7  372.16   37.60
  -1  -8  -7  379.36   25.10
   1   8   7  347.37   26.40
  -1   8  -7  385.16   33.70
   1   8   7  367.46   22.50
  -1   8  -7  368.26   23.30
  -1   8  -7  384.16   23.90
  -2  -8  -7   41.40   22.80
  -2  -8  -7   61.29   11.60
  -2   8  -7   60.79    9.00
  -2   8  -7   40.10   15.90
  -2   8  -7   68.59    9.80
   2   8   7   42.70   14.60
   2   8   7   49.99   11.20
   2   8   7   62.99    9.90
  -3  -8  -7  727.63   43.20
  -3  -8  -7  824.42   63.09
   3   8   7  770.12   42.90
  -3   8  -7  730.43   38.60
   3   8   7  760.62   40.30
  -3   8  -7  665.93   38.40
  -3   8  -7  699.03   51.89
  -4  -8  -7   10.00    6.30
  -4  -8  -7    0.10   23.30
   4   8   7    8.00    5.30
   4   8   7   10.90    8.40
  -4   8  -7   24.70   21.50
  -5  -8  -7  520.55   66.99
  -5  -8  -7  618.54   53.59
   5   8   7  466.85   29.80
   5   8   7  495.75   32.40
  -5   8  -7  420.56   41.80
  -6  -8  -7  235.48   29.10
  -6  -8  -7  295.97   55.99
  -6  -8  -7  215.58   48.60
   6   8   7  279.97   23.30
  -6   8  -7  189.58   31.60
  -7  -9   7  196.68   41.40
   7   9  -7  295.67   24.70
  -7   9   7  263.07   35.40
  -6  -9   7  119.19   32.20
   6   9  -7  100.29   15.50
  -6   9   7  126.79   24.60
   6   9  -7  100.99   16.10
   6   9  -7   93.89   17.60
  -5  -9   7  170.58   33.60
   5   9  -7  241.48   22.90
   5   9  -7  203.38   20.30
  -5   9   7  178.28   28.90
  -5   9   7  220.78   17.50
   5   9  -7  236.88   31.80
   5   9  -7  172.38   22.50
  -4  -9   7  692.13   54.29
  -4   9   7  724.03   38.50
   4   9  -7  674.73   42.30
   4   9  -7  747.43   40.90
   4   9  -7  686.13   43.40
   4   9  -7  750.22   52.29
  -3  -9   7   -5.30   14.20
   3   9  -7    4.50    6.20
   3   9  -7   -1.50    6.80
   3   9  -7   -0.20   11.70
  -3   9   7   -5.50   10.40
   3   9  -7   10.20    6.80
  -3   9   7    2.30    3.70
  -2  -9   7 1034.60   66.09
   2   9  -7 1031.20   56.09
  -2   9   7 1027.40   52.99
   2   9  -7 1045.70   57.29
   2   9  -7 1065.39   65.99
   2   9  -7 1061.29   54.59
  -2   9   7 1052.29   64.69
   1  -9  -7  206.78   17.50
  -1  -9   7  275.37   33.00
   1   9  -7  269.47   33.20
  -1   9   7  254.77   22.10
   1   9  -7  204.68   17.20
  -1   9   7  205.58   27.30
   1   9  -7  200.58   18.30
   1   9  -7  194.58   16.50
   0  -9  -7  416.36   28.10
   0  -9   7  457.95   36.20
   0   9  -7  394.16   26.70
   0   9   7  422.46   33.20
   0   9  -7  412.96   27.50
   0   9   7  456.55   25.90
   0   9  -7  407.86   37.20
   0   9  -7  493.35   34.80
   1  -9   7  622.14   43.90
  -1  -9  -7  600.84   36.50
  -1   9  -7  581.44   34.00
  -1   9  -7  557.34   34.00
  -1   9  -7  623.34   46.70
   1   9   7  568.44   39.00
   1   9   7  595.84   33.30
  -2  -9  -7    9.40    6.40
  -2   9  -7    6.60    5.50
  -2   9  -7   -1.30   11.50
   2   9   7    1.80    8.10
   2   9   7   10.80   12.70
  -2   9  -7    7.90    5.60
   2   9   7   11.50    5.40
  -3  -9  -7  340.47   48.90
  -3   9  -7  257.97   17.50
   3   9   7  248.08   19.00
  -3   9  -7  235.88   33.80
   3   9   7  304.47   23.10
  -3   9  -7  253.97   18.00
  -4  -9  -7   27.50   11.10
  -4  -9  -7   93.19   34.20
  -4   9  -7   47.60   18.70
   4   9   7   19.10    6.40
   4   9   7   38.40   11.40
  -5  -9  -7   18.40   10.70
   5   9   7   31.70   10.50
   5   9   7   15.80    7.40
  -5   9  -7   18.30   17.20
  -6  -9  -7   48.10   37.70
  -6  -9  -7   15.90   17.50
  -6   9  -7  -10.60   15.20
   6   9   7    1.10    9.80
  -6 -10   7   42.40   26.70
   6  10  -7   30.80   12.00
  -6  10   7   46.40   19.50
  -5 -10   7    7.30   22.10
  -5  10   7    0.70   13.50
  -5  10   7    8.00    6.80
   5  10  -7   -6.10    7.80
   5  10  -7    1.20    9.20
  -4 -10   7   31.20   21.40
   4  10  -7    3.20    6.60
   4  10  -7    8.80    8.20
   4  10  -7   16.30   16.40
  -4  10   7    2.00   12.50
  -3 -10   7   30.10   18.50
  -3  10   7   24.70    6.20
   3  10  -7   16.70    9.20
   3  10  -7   15.10   22.60
   3  10  -7   18.50    8.50
   3  10  -7   16.20    8.10
  -3  10   7    6.90   12.30
  -2 -10   7   72.59   23.20
   2  10  -7   33.90    9.10
   2  10  -7   22.70   18.80
   2  10  -7   38.40    9.30
  -2  10   7   51.19   16.90
   2  10  -7   36.30    9.20
  -2  10   7   34.50    7.10
  -1 -10   7   -0.90   14.60
   1  10  -7   -4.40    5.10
   1  10  -7    1.80    5.70
  -1  10   7    2.40   10.90
   1  10  -7    2.10   11.60
   1  10  -7    3.70    7.10
  -1  10   7    2.80    4.10
   0 -10  -7  258.37   21.30
   0 -10   7  226.98   31.80
   0  10  -7  237.68   21.40
   0  10  -7  221.58   18.80
   0  10  -7  263.87   19.50
   0  10   7  231.28   17.30
   0  10   7  240.08   25.40
   0  10  -7  246.98   34.30
   1 -10   7  153.58   25.20
  -1 -10  -7   88.39   14.40
   1  10   7  158.68   13.70
  -1  10  -7  146.79   14.30
  -1  10  -7  142.59   13.80
   1  10   7  140.89   20.70
  -1  10  -7  122.09   24.70
  -2 -10  -7   53.69   12.10
   2 -10   7   49.50   19.00
  -2 -10  -7  106.79   32.00
   2  10   7   90.19   16.80
  -2  10  -7   97.49   11.90
   2  10   7   89.89   12.00
  -2  10  -7  110.29   23.90
  -2  10  -7   97.49   12.60
   2  10   7   33.90   15.90
  -3 -10  -7  384.26   54.19
  -3 -10  -7  350.86   29.70
  -3  10  -7  334.57   41.20
   3  10   7  395.66   28.90
  -3  10  -7  337.17   23.30
  -3  10  -7  370.26   22.70
   3  10   7  386.46   25.10
  -4 -10  -7    4.00   25.80
  -4 -10  -7    2.20    9.10
   4  10   7    3.50    9.50
   4  10   7    4.50    5.80
  -4  10  -7    4.90   13.90
  -5 -10  -7  353.36   59.19
   5  10   7  289.47   26.10
  -5  10  -7  235.68   39.00
  -5 -11   7  138.49   35.30
  -5  11   7  145.49   29.20
   5  11  -7  127.59   21.40
  -5  11   7  178.28   16.70
   5  11  -7  147.79   19.00
  -4 -11   7  395.66   52.69
   4  11  -7  454.65   33.20
   4  11  -7  481.15   31.60
  -4  11   7  457.85   27.50
   4  11  -7  414.06   32.40
  -3 -11   7   11.80   20.40
   3  11  -7   11.00   15.30
   3  11  -7   24.40   10.10
  -3  11   7   23.00    7.40
   3  11  -7   17.40    9.20
  -3  11   7   19.70   18.20
  -2 -11   7  715.23   58.19
   2  11  -7  695.63   44.30
  -2  11   7  782.22   41.10
   2  11  -7  761.02   57.89
   2  11  -7  776.32   44.90
  -2  11   7  822.12   55.89
   2  11  -7  706.93   43.60
  -1 -11   7  125.79   27.60
  -1  11   7   60.09    9.40
   1  11  -7   69.19   13.30
   1  11  -7   60.69   22.00
   1  11  -7   48.50   10.90
   1  11  -7   49.90   10.90
  -1  11   7   61.39   19.50
   0 -11   7  290.77   37.20
   0  11  -7  242.28   35.70
   0  11   7  297.17   35.00
   0  11  -7  294.07   22.80
   0  11  -7  385.66   28.40
   0  11  -7  239.08   21.90
   0  11   7  335.47   21.60
   1 -11   7  314.67   36.80
  -1 -11  -7  202.78   25.70
  -1  11  -7  252.87   39.10
  -1  11  -7  240.08   19.80
   1  11   7  257.17   30.80
   1  11   7  272.57   19.90
  -1  11  -7  280.47   21.20
   2 -11   7   28.40   17.30
  -2 -11  -7    2.20   25.60
   2  11   7   14.10   11.40
  -2  11  -7   10.00   16.30
  -2  11  -7   14.90    7.30
   2  11   7    9.30    6.40
  -2  11  -7   14.60    7.80
   3 -11   7  144.59   27.40
  -3 -11  -7  119.99   38.90
  -3  11  -7  136.29   12.70
   3  11   7  115.79   15.30
   3  11   7  126.69   20.10
  -3  11  -7  125.59   28.30
  -3  11  -7  151.98   14.40
  -3 -12   7    4.00   21.90
   3  12  -7    3.80    8.40
  -3  12   7    2.70   15.50
   3  12  -7    8.00    8.90
  -3  12   7   12.30    5.90
   3  12  -7    5.20    9.30
  -2 -12   7   70.99   26.90
   2  12  -7   38.40   11.80
   2  12  -7   43.20   10.70
   2  12  -7   36.80   11.70
   2  12  -7   17.10   18.60
  -2  12   7   29.50    8.80
  -2  12   7   27.60   16.50
  -1 -12   7    7.20   20.40
   1  12  -7    1.30   14.20
  -1  12   7    1.50   14.90
   1  12  -7    5.90   10.00
   1  12  -7   -1.70    6.10
  -1  12   7   -4.40    4.80
   1  12  -7   -4.20    6.70
   0 -12   7  129.39   29.90
   0  12   7  220.48   17.60
   0  12  -7  205.58   18.90
   0  12   7  177.38   27.90
   0  12  -7  195.98   19.10
   0  12  -7  201.58   25.10
   0  12  -7  156.98   30.30
   1 -12   7  142.09   29.60
  -1  12  -7  161.68   18.10
   1  12   7  117.99   14.90
   1  12   7  146.79   25.00
  -1  12  -7  132.69   31.70
  -1  12  -7  141.29   16.80
 -10   0   8  -11.20   27.40
  -9   0   8   64.29   26.60
  -8   0   8  117.59   28.90
  -7   0   8   36.40   17.00
  -7   0   8   32.70    6.70
   6   0  -8   58.99   10.00
  -6   0   8   71.59    8.90
  -6   0   8   86.29   19.10
   5   0  -8   39.20   11.20
   5   0  -8   44.40    8.30
  -5   0   8   32.10    5.80
  -5   0   8   27.40   11.40
   4   0  -8  320.37   21.50
  -4   0   8  301.27   22.20
   4   0  -8  283.37   18.90
   4   0  -8  310.17   34.80
   4   0  -8  327.97   22.80
  -4   0   8  298.77   18.40
  -4   0   8  293.07   23.30
  -3   0   8    1.10    2.50
  -3   0   8   -0.60    5.60
   3   0  -8    3.90    3.60
  -3   0   8    1.30    3.90
   3   0  -8    4.20    4.10
   3   0  -8   -5.70    9.40
   2   0  -8  147.29   11.40
   2   0  -8  140.49   10.80
  -2   0   8  137.09   11.10
  -2   0   8  115.29   23.20
  -2   0   8  145.09   15.60
   2   0  -8  140.69   23.90
  -2   0   8  116.69   11.10
  -1   0   8  392.06   37.90
   1   0  -8  485.25   38.20
  -1   0   8  456.85   25.40
   1   0  -8  461.45   25.40
   0   0   8  183.78   28.50
   0   0  -8  236.18   14.40
   0   0   8  223.98   15.10
   0   0  -8  257.77   31.90
   1   0   8 3025.50  178.28
   1   0   8 3550.44  159.68
  -1   0  -8 3431.06  156.78
   1   0   8 3188.38  172.98
  -1   0  -8 3287.07  172.08
  -2   0  -8   83.79   21.00
   2   0   8   56.79   20.50
   2   0   8   67.29   24.00
  -2   0  -8   77.49    6.80
   2   0   8   89.89    7.90
   3   0   8 1447.96   70.29
  -3   0  -8 1469.35   69.69
   3   0   8 1268.57   95.89
  -3   0  -8 1369.76   84.99
   3   0   8 1491.25   92.89
  -3   0  -8 1549.45   98.69
   4   0   8  569.64   53.19
  -4   0  -8  582.44   30.40
  -4   0  -8  584.24   69.99
  -4   0  -8  563.94   45.90
  -5   0  -8  394.76   37.70
  -5   0  -8  541.25   77.19
   5   0   8  414.96   51.99
   5   0   8  392.26   22.80
  -5   0  -8  428.16   23.50
  -6   0  -8 1044.10   92.09
  -6   0  -8 1035.80   52.49
   6   0   8  903.81   80.19
  -6   0  -8 1072.29   74.49
  -7   0  -8   -5.60    4.80
   7   0   8   11.60    6.80
  -7   0  -8   -8.40   33.20
   8   0   8  140.49   16.30
  -8   0  -8  167.08   55.19
  -8   0  -8  177.98   16.40
  -9   0  -8  -17.60   41.80
  -9   0  -8    9.00    8.90
   9   0   8   12.60    9.50
 -10  -1   8  -22.30   23.80
 -10   1   8   -6.00   27.40
  -9  -1   8  286.37   44.00
  -9   1   8  361.66   49.10
  -8  -1   8   92.79   26.40
  -8   1   8  102.99   26.10
  -7  -1   8  254.57   35.10
   7   1  -8  300.47   21.70
  -7   1   8  310.27   18.80
  -7   1   8  353.16   33.60
  -6  -1   8  768.72   50.89
   6  -1  -8  779.92   47.50
  -6  -1   8  773.52   40.60
   6  -1  -8  733.53   41.30
  -6   1   8  844.42   47.80
   6   1  -8  740.63   41.80
  -6   1   8  770.22   40.10
  -5  -1   8   18.30    5.00
   5  -1  -8   21.20    5.90
  -5  -1   8   14.50   19.80
   5  -1  -8   23.80   14.50
  -5   1   8    5.20    8.60
  -5   1   8   14.40    7.30
   5   1  -8   19.60    9.30
  -5   1   8   19.90    4.80
   5   1  -8   27.80    7.40
  -4  -1   8 2124.59  105.89
   4  -1  -8 2219.78  109.29
   4  -1  -8 2155.38  106.49
  -4  -1   8 2230.88  111.89
  -4  -1   8 2005.10  116.79
   4  -1  -8 2337.17  119.89
   4  -1  -8 2229.08  108.99
   4   1  -8 2179.88  106.89
  -4   1   8 2282.27  110.39
   4   1  -8 2217.08  109.19
   4   1  -8 2209.18  114.09
   4   1  -8 2326.67  111.59
  -4   1   8 2275.27  110.29
  -4   1   8 2155.18  105.99
  -3  -1   8  742.33   40.00
  -3  -1   8  652.43   35.20
   3  -1  -8  641.54   47.60
  -3  -1   8  653.03   48.40
   3  -1  -8  679.63   37.40
   3  -1  -8  679.43   35.50
   3   1  -8  738.03   37.30
   3   1  -8  663.63   35.80
  -3   1   8  649.43   37.40
   3   1  -8  682.13   44.80
  -3   1   8  650.83   35.60
  -3   1   8  598.34   37.30
  -2  -1   8 1862.01   89.29
   2  -1  -8 1888.71  102.59
   2  -1  -8 1919.41   90.69
  -2  -1   8 1804.02   89.89
  -2  -1   8 1959.70   93.09
  -2  -1   8 1599.74  100.89
   2  -1  -8 1915.41   89.09
   2   1  -8 1747.33   98.99
  -2   1   8 1951.60   91.19
  -2   1   8 1841.02   89.79
   2   1  -8 1792.32   89.29
   2   1  -8 1796.72   89.09
  -2   1   8 1773.02   90.49
  -1  -1   8 1801.22   86.09
  -1  -1   8 1786.82   99.79
   1  -1  -8 1785.82   84.99
   1  -1  -8 1636.14   98.19
   1  -1  -8 1799.12   86.69
  -1  -1   8 1776.52   85.09
  -1   1   8 1797.22   85.99
   1   1  -8 1745.33   84.59
   1   1  -8 1697.13   96.29
  -1   1   8 1740.93   86.39
   1   1  -8 1768.12   85.69
   0  -1   8  151.38   11.60
   0  -1   8  207.78   31.30
   0  -1  -8  135.19   10.80
   0  -1  -8  129.69   10.70
   0  -1  -8  171.58   27.50
   0   1   8  205.48   34.50
   0   1  -8  175.08   11.50
   0   1   8  112.69   22.30
   0   1   8  150.68   10.90
   0   1   8  161.58   12.30
   0   1  -8  158.68   23.90
  -1  -1  -8 1494.25   71.89
  -1  -1  -8 1546.35   72.39
  -1  -1  -8 1561.44   89.79
   1  -1   8 1619.34   74.29
   1  -1   8 1510.05   98.59
   1  -1   8 1453.75   88.59
   1   1   8 1394.76   88.59
   1   1   8 1454.25   72.59
  -1   1  -8 1441.16   72.69
  -1   1  -8 1573.14   86.39
   1   1   8 1526.25   92.09
   1   1   8 1445.96   72.69
   2  -1   8  191.88   37.00
  -2  -1  -8  119.99   25.80
   2  -1   8  118.49   10.10
  -2  -1  -8  128.29    8.80
  -2  -1  -8  181.88   34.20
  -2  -1  -8  126.59    8.80
   2  -1   8  120.29   25.90
   2   1   8  123.99    9.20
  -2   1  -8   96.79    8.30
  -2   1  -8  139.99   23.20
   2   1   8  103.59   23.70
   2   1   8  103.79    8.60
   2   1   8  148.39   38.10
   3  -1   8  208.88   14.10
   3  -1   8  236.68   35.60
  -3  -1  -8  263.37   37.90
  -3  -1  -8  298.57   50.69
   3  -1   8  238.18   46.10
  -3  -1  -8  203.98   13.00
  -3   1  -8  195.48   12.40
   3   1   8  194.28   13.00
   3   1   8  193.08   12.50
   3   1   8  190.48   33.00
  -3   1  -8  220.88   29.90
   3   1   8  206.98   37.50
   4  -1   8   55.09   25.10
  -4  -1  -8   56.89   20.30
   4  -1   8   56.89    8.40
  -4  -1  -8   45.90   25.30
  -4  -1  -8   51.99    7.40
  -4   1  -8   60.89   17.00
   4   1   8   79.19    8.90
  -4   1  -8   71.89    7.80
   4   1   8   83.29    8.70
  -4   1  -8   60.49   29.10
  -5  -1  -8  -19.80   13.20
   5  -1   8   19.10   24.00
  -5  -1  -8    9.60    4.00
  -5  -1  -8    5.50   23.20
  -5   1  -8   -3.90   11.30
  -5   1  -8    0.70    2.60
   5   1   8    6.30    3.70
   5   1   8    4.90    4.20
  -5   1  -8    1.30   23.80
   6  -1   8    0.10   31.50
  -6  -1  -8   27.80    6.90
  -6  -1  -8    2.30   16.60
  -6  -1  -8   59.09   33.00
   6   1   8   32.80    7.30
  -6   1  -8   12.20   14.20
  -6   1  -8   18.00   29.40
  -6   1  -8   34.10    6.40
  -7  -1  -8   14.00    6.90
  -7  -1  -8   52.09   39.40
  -7   1  -8   30.70   37.20
  -7   1  -8    7.40    5.10
   7   1   8   17.90    8.00
  -7   1  -8   18.30   14.20
  -8  -1  -8   81.49   13.60
  -8  -1  -8   92.09   52.59
  -8   1  -8   48.60   45.00
   8   1   8   91.89   13.30
  -8   1  -8   89.39   11.70
   9  -1   8   16.80   10.10
  -9  -1  -8   21.90    9.50
  -9  -1  -8   -7.40   44.40
  -9   1  -8   10.90    7.50
  -9   1  -8  102.09   61.09
 -10  -2   8   14.80   26.10
 -10   2   8    3.20   28.60
  -9  -2   8   77.49   30.00
  -9   2   8   76.09   31.20
  -8  -2   8    9.50   19.50
  -8   2   8  -21.70   15.40
  -7  -2   8    7.40   14.30
   7   2  -8   14.10    7.30
  -7   2   8    0.20    8.00
  -7   2   8   21.20   14.50
  -7   2   8   10.90    4.40
  -6  -2   8   21.70    5.90
   6  -2  -8   21.80   11.10
  -6  -2   8   18.20   14.30
  -6   2   8   25.80    5.20
   6   2  -8   33.10    7.50
  -6   2   8   47.10   15.20
  -6   2   8   25.00   10.00
  -5  -2   8   27.60    6.30
   5  -2  -8   34.30    9.50
   5  -2  -8   25.90   15.80
  -5  -2   8   23.30   11.90
   5  -2  -8   23.40    5.90
  -5   2   8   18.60    7.80
  -5   2   8   19.00    4.70
  -5   2   8   30.20   10.50
   5   2  -8   18.70    5.60
   4  -2  -8  344.57   23.70
  -4  -2   8  318.27   26.20
  -4  -2   8  327.27   20.30
  -4  -2   8  374.46   39.50
   4  -2  -8  356.86   22.60
   4  -2  -8  289.97   19.60
  -4   2   8  360.86   26.90
   4   2  -8  337.87   23.60
   4   2  -8  335.77   25.80
   4   2  -8  397.46   26.80
   4   2  -8  356.26   23.90
  -4   2   8  343.67   23.90
  -4   2   8  328.67   20.30
   3  -2  -8   17.10    4.30
  -3  -2   8   21.00    8.50
  -3  -2   8    5.00   11.40
  -3  -2   8   18.10    5.10
   3  -2  -8   22.00   11.40
   3   2  -8   31.70   11.20
  -3   2   8   15.50    6.30
   3   2  -8   29.30    7.30
  -3   2   8   18.00    5.10
   3   2  -8   29.20    6.60
  -3   2   8   33.70    8.80
  -2  -2   8  571.44   33.80
   2  -2  -8  520.95   28.20
   2  -2  -8  607.04   44.30
  -2  -2   8  530.65   41.20
   2  -2  -8  525.65   31.60
  -2   2   8  467.15   30.80
  -2   2   8  562.84   29.80
   2   2  -8  533.55   29.40
   2   2  -8  571.64   37.60
   1  -2  -8 1330.57   66.19
   1  -2  -8 1425.96   69.09
   1  -2  -8 1429.66   82.69
  -1  -2   8 1395.26   67.49
  -1  -2   8 1358.16   79.49
  -1   2   8 1328.07   69.09
   1   2  -8 1348.67   67.39
   1   2  -8 1356.16   76.19
  -1   2   8 1351.26   66.99
   0  -2  -8  619.14   46.40
   0  -2  -8  587.24   30.40
   0  -2   8  630.94   33.70
   0  -2  -8  553.44   31.10
   0  -2   8  614.34   44.30
   0   2  -8  612.34   41.00
   0   2   8  602.24   30.70
   0   2  -8  597.94   31.60
   0   2   8  477.55   44.10
   0   2   8  546.45   32.40
  -1  -2  -8 3484.45  160.28
  -1  -2  -8 3481.95  159.98
   1  -2   8 3541.05  161.48
  -1  -2  -8 3659.63  178.58
   1  -2   8 3344.17  174.88
  -1   2  -8 3241.08  160.58
   1   2   8 3323.97  159.88
   1   2   8 3306.57  174.88
   1   2   8 3269.97  160.58
  -1   2  -8 3461.75  171.78
  -2  -2  -8   -3.90   11.70
  -2  -2  -8   25.00   18.30
   2  -2   8   27.20    6.00
  -2  -2  -8   21.20    5.10
   2  -2   8   30.10   25.50
  -2  -2  -8   30.30    6.10
   2  -2   8   45.70   18.40
   2   2   8   25.50    5.00
   2   2   8   17.50    4.50
  -2   2  -8   25.80   12.20
  -2   2  -8   29.90    5.20
  -3  -2  -8 1731.63   81.09
   3  -2   8 1674.63   99.59
  -3  -2  -8 1586.14   99.69
  -3  -2  -8 1773.42  107.69
  -3   2  -8 1589.24   79.99
   3   2   8 1668.53   98.49
   3   2   8 1622.54   80.29
   3   2   8 1706.03   80.79
  -3   2  -8 1743.03   93.19
   4  -2   8  550.34   52.29
   4  -2   8  593.14   38.80
  -4  -2  -8  574.04   68.69
  -4  -2  -8  585.04   32.00
  -4  -2  -8  626.84   51.69
  -4   2  -8  595.04   30.40
   4   2   8  590.84   31.50
   4   2   8  593.34   31.50
  -5  -2  -8  459.75   26.00
  -5  -2  -8  404.06   49.00
  -5  -2  -8  454.45   65.99
  -5   2  -8  424.36   23.30
  -5   2  -8  422.36   35.70
   5   2   8  427.26   24.90
   5   2   8  426.86   24.90
  -5   2  -8  449.26   68.59
  -6  -2  -8 1007.80   86.79
  -6  -2  -8  951.10   69.99
  -6  -2  -8  997.20   51.19
  -6   2  -8 1004.30   93.39
  -6   2  -8  872.21   59.59
   6   2   8  984.00   49.80
  -6   2  -8  911.81   47.70
  -7  -2  -8  -36.80   27.30
  -7  -2  -8    2.40    6.70
  -7   2  -8    4.60   12.40
  -7   2  -8    1.80    5.20
  -7   2  -8  -23.30   31.90
   7   2   8    5.30    7.20
  -8  -2  -8  298.57   24.00
  -8  -2  -8  225.18   60.29
   8   2   8  311.07   23.40
  -8   2  -8  152.58   62.79
 -10  -3   8  -12.70   25.40
 -10   3   8  -32.10   41.60
  -9  -3   8  263.17   43.30
  -9   3   8  329.37   47.20
  -8  -3   8  127.89   38.00
  -8   3   8  140.29   30.80
  -7  -3   8  401.76   37.70
   7  -3  -8  338.77   30.60
   7   3  -8  333.57   27.20
  -7   3   8  414.96   31.50
  -7   3   8  403.66   37.00
  -7   3   8  342.27   20.30
   7   3  -8  361.46   26.30
   6  -3  -8  692.13   48.90
  -6  -3   8  863.51   55.39
  -6   3   8  791.92   50.59
   6   3  -8  865.01   45.20
  -6   3   8  789.02   40.90
  -6   3   8  836.42   49.60
   5  -3  -8   29.00    5.30
  -5  -3   8   31.40    7.00
   5  -3  -8   19.40    8.00
  -5  -3   8   40.60   13.90
  -5   3   8   25.60   10.10
   5   3  -8   34.50    8.00
  -5   3   8   32.20   10.00
  -5   3   8   41.40    7.70
  -4  -3   8 2316.27  117.19
  -4  -3   8 2290.47  109.89
  -4  -3   8 2235.68  120.69
   4  -3  -8 2174.88  108.09
   4   3  -8 2250.67  113.09
  -4   3   8 2322.07  114.49
  -4   3   8 2261.17  111.39
   4   3  -8 2262.67  113.99
  -4   3   8 2192.98  109.69
   4   3  -8 2469.55  111.29
   3  -3  -8  465.85   28.50
  -3  -3   8  389.46   34.20
  -3  -3   8  415.86   24.10
   3  -3  -8  444.26   22.80
  -3  -3   8  452.65   30.00
   3   3  -8  416.76   29.40
   3   3  -8  438.96   24.90
  -3   3   8  377.36   27.20
   3   3  -8  384.56   25.60
  -3   3   8  384.46   24.20
  -2  -3   8 1430.76   71.09
  -2  -3   8 1461.65   82.09
   2  -3  -8 1468.85   69.79
  -2  -3   8 1453.75   76.09
   2   3  -8 1487.95   71.79
   2   3  -8 1435.46   71.59
   2   3  -8 1417.56   77.79
  -2   3   8 1344.67   73.99
  -2   3   8 1483.85   70.99
   1  -3  -8  767.62   40.10
   1  -3  -8  785.42   43.00
  -1  -3   8  793.82   52.59
  -1  -3   8  759.62   41.20
   1   3  -8  842.72   49.70
   1   3  -8  795.42   41.80
  -1   3   8  761.32   51.49
  -1   3   8  805.62   44.60
  -1   3   8  922.51   42.90
   0  -3   8   41.30    6.80
   0  -3  -8   30.20    4.60
   0  -3  -8   25.50    5.90
   0   3  -8   18.30    4.60
   0   3   8   31.90    7.90
   0   3   8   26.50    4.60
   0   3  -8   38.30   11.80
   0   3   8   20.40   12.60
   1  -3   8  513.25   28.10
  -1  -3  -8  607.64   46.20
   1  -3   8  532.05   41.50
  -1  -3  -8  505.85   28.10
  -1  -3  -8  514.85   43.90
   1   3   8  538.35   39.30
   1   3   8  485.55   26.90
  -1   3  -8  513.35   28.10
   1   3   8  495.45   28.50
  -1   3  -8  508.45   36.90
   2  -3   8  164.48   12.50
  -2  -3  -8  204.48   35.50
   2  -3   8  162.78   28.00
   2  -3   8  244.58   49.40
  -2  -3  -8  172.28   14.30
  -2  -3  -8  167.68   12.10
  -2  -3  -8  119.09   27.00
  -2   3  -8  183.38   12.50
  -2   3  -8  233.18   27.00
   2   3   8  182.18   13.00
   2   3   8  191.48   12.20
  -3  -3  -8   -7.30   14.70
  -3  -3  -8   40.30   18.70
   3  -3   8   20.70    5.20
   3  -3   8   -7.40   14.40
  -3  -3  -8   22.40    5.30
   3   3   8   17.10   15.60
  -3   3  -8   16.40   11.30
   3   3   8   18.30    4.40
   3   3   8   19.40    5.10
  -3   3  -8   15.20    4.00
  -4  -3  -8   86.39   28.10
  -4  -3  -8   47.20    7.70
  -4  -3  -8   64.99   23.40
  -4   3  -8   45.40    5.90
  -4   3  -8   49.20   15.60
   4   3   8   52.99    8.70
   4   3   8   43.70    7.00
  -5  -3  -8   52.19    8.90
  -5  -3  -8   76.09   30.80
  -5   3  -8   34.90    5.10
   5   3   8   37.30    7.70
   5   3   8   36.20    6.80
  -5   3  -8   36.10   14.00
  -6  -3  -8   13.50   27.40
  -6  -3  -8    5.50   26.30
  -6  -3  -8   12.20    7.20
   6   3   8    1.00    6.80
   6   3   8   10.30    4.50
  -6   3  -8   -4.10   11.90
  -7  -3  -8   27.30   37.80
  -7  -3  -8   12.90    8.00
   7   3   8   16.10    8.50
  -7   3  -8   43.90   42.20
  -7   3  -8    1.50   12.60
  -8  -3  -8   75.69   14.20
  -8  -3  -8   47.90   39.80
  -8   3  -8   54.59   18.20
  -8   3  -8   60.59   53.19
   8   3   8   54.19   12.70
 -10  -4   8  -11.10   25.50
 -10   4   8   -9.60   32.30
  -9  -4   8  107.19   32.80
  -9   4   8   70.39   32.50
  -8  -4   8   -3.40   18.70
   8   4  -8    2.50    9.30
  -8   4   8    2.30   20.10
   8   4  -8   12.80    9.30
   7  -4  -8   32.20   13.10
   7  -4  -8  -12.60   11.30
  -7  -4   8   37.30   17.80
  -7   4   8   14.00   11.10
  -7   4   8    9.30   15.10
   7   4  -8   16.00    8.10
   7   4  -8    5.90    8.50
  -7   4   8    8.90    3.60
   6  -4  -8   21.00   12.00
   6  -4  -8   20.30    9.90
  -6  -4   8   29.60   17.80
  -6   4   8   26.20   13.60
  -6   4   8   34.50   12.00
   6   4  -8   21.30    8.00
   6   4  -8   33.40    9.60
  -6   4   8   30.90    5.50
  -5  -4   8    6.50   14.30
  -5  -4   8   28.20   13.50
  -5  -4   8   12.60    4.80
  -5   4   8   -5.70    6.60
  -5   4   8   -1.60    3.20
   5   4  -8   12.20    6.80
   5   4  -8    3.20    6.80
  -4  -4   8  210.28   26.00
  -4  -4   8  162.38   25.10
  -4  -4   8  171.08   14.10
   4  -4  -8  175.68   11.80
  -4   4   8  222.28   15.20
   4   4  -8  193.28   18.70
   4   4  -8  200.08   15.40
  -4   4   8  208.48   19.10
  -3  -4   8    8.40   11.30
  -3  -4   8   17.70    9.60
   3  -4  -8   14.60    8.40
  -3  -4   8   18.10    5.40
   3   4  -8   13.90    9.10
  -3   4   8   23.00    5.70
  -3   4   8   13.20    7.30
   2  -4  -8  538.35   27.00
   2  -4  -8  493.35   31.40
  -2  -4   8  526.55   34.10
  -2  -4   8  518.95   28.40
  -2   4   8  503.65   32.60
   2   4  -8  532.45   35.10
  -2   4   8  495.25   27.50
   2   4  -8  474.55   28.60
  -1  -4   8  760.92   41.00
   1  -4  -8  776.92   42.80
   1  -4  -8  800.22   40.10
  -1  -4   8  786.12   52.29
   1   4  -8  803.42   48.80
  -1   4   8  856.21   45.80
  -1   4   8  768.32   40.00
   1   4  -8  808.92   41.80
   0  -4   8  473.65   25.70
   0  -4  -8  433.26   26.50
   0  -4  -8  473.15   25.10
   0  -4   8  449.26   37.30
   0   4  -8  485.25   34.10
   0   4   8  463.55   24.70
   0   4  -8  435.96   25.90
   0   4   8  492.35   28.90
   0   4   8  423.66   31.80
  -1  -4  -8 1937.11   91.29
  -1  -4  -8 1885.71   90.19
   1  -4   8 1862.11  104.19
  -1  -4  -8 1877.31  106.59
   1  -4   8 1978.80   90.49
   1   4   8 1863.91   91.79
  -1   4  -8 1750.92   90.39
   1   4   8 1804.82   89.59
   1   4   8 1901.61   98.89
  -1   4  -8 1806.72  106.59
   2  -4   8   84.59    9.70
  -2  -4  -8   86.49   10.40
  -2  -4  -8   64.69   26.80
  -2  -4  -8  131.49   30.50
   2  -4   8   49.90   30.60
  -2  -4  -8   91.59   11.00
   2   4   8   75.19   21.80
   2   4   8   77.09    7.50
  -2   4  -8   71.79   16.00
   2   4   8   81.09   12.20
  -2   4  -8   86.19    9.90
  -3  -4  -8 1147.89   84.99
  -3  -4  -8 1196.28   79.89
  -3  -4  -8  992.60   58.69
  -3   4  -8 1141.69   66.29
   3   4   8 1117.79   55.89
  -3   4  -8 1107.79   54.89
   3   4   8 1141.09   56.29
  -4  -4  -8  321.87   50.49
  -4  -4  -8  278.77   43.60
  -4  -4  -8  251.27   17.90
  -4   4  -8  286.07   27.40
   4   4   8  260.17   18.00
  -4   4  -8  245.78   15.00
   4   4   8  257.47   16.80
  -5  -4  -8  131.59   38.20
  -5  -4  -8  151.78   36.50
  -5  -4  -8  173.98   15.90
   5   4   8  180.48   14.30
  -5   4  -8  182.78   26.50
   5   4   8  210.48   15.90
  -6  -4  -8  802.32   77.69
  -6  -4  -8  763.92   44.80
  -6  -4  -8  993.80   73.69
  -6   4  -8  678.23   52.69
   6   4   8  864.41   44.00
   6   4   8  737.33   42.20
  -7  -4  -8   -4.90    6.70
  -7  -4  -8   -7.00   26.30
  -7  -4  -8  -23.50   27.90
  -7   4  -8   -7.50   12.10
   7   4   8    3.80    8.10
  -8  -4  -8  204.28   57.49
  -8  -4  -8  205.28   23.60
   8   4   8  214.18   20.80
  -8   4  -8  170.98   30.60
  -9  -5   8  218.38   42.10
  -9   5   8  190.38   29.60
  -9   5   8  249.18   44.70
  -8  -5   8  108.29   27.80
   8   5  -8   70.59   16.80
  -8   5   8  176.78   26.80
   8   5  -8   98.39   16.70
  -8   5   8   86.79   30.30
   7  -5  -8  236.58   30.60
  -7  -5   8  244.18   41.50
  -7   5   8  205.38   30.80
  -7   5   8  310.07   28.40
   7   5  -8  244.68   21.70
   7   5  -8  246.18   23.60
  -6  -5   8  704.73   50.79
  -6   5   8  733.23   44.80
   6   5  -8  631.54   40.40
   6   5  -8  648.94   38.90
  -6   5   8  607.54   34.10
  -5  -5   8   23.90   14.90
  -5  -5   8   14.90   13.10
   5   5  -8   -6.30    6.50
  -5   5   8   20.90    6.60
  -5   5   8   12.00    8.50
   5   5  -8   11.10    9.00
   5   5  -8   16.60    6.60
  -4  -5   8 1842.22   87.39
  -4  -5   8 1923.51   96.99
  -4  -5   8 1788.92   98.19
   4  -5  -8 1758.12   84.19
   4   5  -8 1761.02   88.09
  -4   5   8 1541.45   91.59
   4   5  -8 1792.52   92.09
  -4   5   8 1730.13   87.79
  -3  -5   8  359.86   23.00
   3  -5  -8  406.66   22.30
  -3  -5   8  409.06   35.20
  -3  -5   8  394.16   30.50
   3   5  -8  426.06   29.90
  -3   5   8  392.96   22.50
  -3   5   8  328.37   27.30
   3   5  -8  383.66   24.10
  -2  -5   8 1083.39   65.89
   2  -5  -8 1115.59   52.89
  -2  -5   8 1045.60   54.39
  -2  -5   8 1052.39   60.59
  -2   5   8 1089.09   59.89
  -2   5   8 1032.10   52.89
   2   5  -8 1047.10   62.19
   1  -5  -8 1080.39   54.39
  -1  -5   8 1058.39   55.29
  -1  -5   8 1087.59   67.29
  -1  -5   8  977.60   73.19
   1   5  -8 1200.18   63.89
  -1   5   8 1092.29   60.29
   1   5  -8 1167.78   56.39
  -1   5   8 1074.89   54.09
   0  -5  -8    5.60    3.80
   0  -5   8    2.60    2.90
   0   5   8    8.40    7.20
   0   5   8    4.60    2.60
   0   5  -8    3.20    6.80
   0   5   8   -2.10    5.00
   0   5  -8    1.70    3.00
  -1  -5  -8  633.34   50.09
   1  -5   8  664.03   35.10
  -1  -5  -8  650.73   35.40
   1   5   8  677.13   34.70
   1   5   8  699.53   37.60
  -1   5  -8  625.54   35.40
   1   5   8  669.83   42.00
  -1   5  -8  677.53   44.30
  -2  -5  -8   97.89   25.90
   2  -5   8   88.09    8.20
   2   5   8   71.39   17.10
   2   5   8   77.89    7.70
   2   5   8   70.99   10.40
  -2   5  -8   95.99   19.70
  -2   5  -8   85.79   10.60
  -3  -5  -8   69.69   27.90
  -3  -5  -8   54.09    9.50
   3   5   8   78.89   10.80
  -3   5  -8   64.19    8.30
   3   5   8   63.59    8.50
  -3   5  -8   53.19   15.50
  -4  -5  -8  123.89   32.70
  -4  -5  -8   98.99   13.10
  -4  -5  -8  120.89   34.10
   4   5   8   83.39   10.20
  -4   5  -8   64.99    7.70
   4   5   8   89.29   12.10
  -4   5  -8   79.49   19.90
  -5  -5  -8  -20.50   19.50
  -5  -5  -8    8.80    5.80
  -5  -5  -8  -18.80   20.30
   5   5   8    2.60    6.60
  -5   5  -8   -6.50   10.10
   5   5   8    2.00    4.10
  -6  -5  -8    7.10    6.40
  -6  -5  -8   26.00   27.20
  -6  -5  -8   17.40   54.09
   6   5   8    7.40    8.60
  -6   5  -8    9.70   13.90
   6   5   8   15.90   11.90
  -7  -5  -8   26.40   32.50
  -7  -5  -8    5.80    9.10
  -7  -5  -8  -12.70   29.50
   7   5   8   14.50    9.10
  -7   5  -8   -5.00   13.30
  -8  -5  -8   50.09   14.00
  -8  -5  -8   37.30   44.30
  -8   5  -8   64.09   23.30
   8   5   8   37.30   12.00
  -9  -6   8   85.39   30.90
  -9   6   8   95.29   36.60
  -9   6   8   69.39   21.70
   8  -6  -8   10.80   14.90
  -8  -6   8   -9.60   19.30
  -8   6   8   21.40   15.80
   8   6  -8    2.50   10.60
   8   6  -8    9.50    9.80
  -7  -6   8  -11.70   16.00
   7   6  -8   -1.00    8.70
   7   6  -8    3.30    7.20
  -7   6   8   -8.40   18.70
  -6  -6   8   47.90   21.50
   6   6  -8   26.90   11.80
   6   6  -8   35.60    9.80
   6   6  -8   28.30   13.20
  -6   6   8   52.89   15.10
  -6   6   8   41.50    7.60
  -5  -6   8   10.00   13.50
  -5  -6   8   11.30   16.10
   5   6  -8    9.30    6.80
   5   6  -8   31.80   11.90
   5   6  -8   32.20    8.90
  -5   6   8   55.79   14.70
  -5   6   8   18.00    6.60
  -4  -6   8   84.69   19.20
  -4  -6   8   94.19   22.60
  -4   6   8   48.60   13.90
   4   6  -8   73.89   15.40
  -4   6   8   76.49   10.40
   4   6  -8   57.49   11.30
  -3  -6   8    9.40   10.80
   3  -6  -8    2.00    3.10
  -3   6   8    7.20    4.00
   3   6  -8    3.80    4.60
  -3   6   8    0.00    7.20
   3   6  -8   12.80    9.10
   2  -6  -8  416.36   23.90
  -2  -6   8  469.95   33.20
  -2  -6   8  407.16   25.10
   2   6  -8  488.45   33.50
   2   6  -8  397.86   25.60
  -2   6   8  452.75   31.90
   2   6  -8  431.76   23.70
  -2   6   8  409.46   23.60
  -1  -6   8  492.15   34.40
   1  -6  -8  464.25   25.90
  -1  -6   8  454.15   26.50
   1   6  -8  505.15   35.40
  -1   6   8  445.96   25.10
   1   6  -8  437.86   27.00
  -1   6   8  455.95   31.90
   0  -6   8  363.16   22.30
   0  -6  -8  382.56   22.80
   0   6   8  368.96   21.60
   0   6  -8  440.96   32.40
   0   6  -8  408.56   23.60
   0   6   8  349.17   26.30
  -1  -6  -8 1398.76   69.09
   1  -6   8 1341.77   67.69
  -1  -6  -8 1496.35   84.79
  -1   6  -8 1340.47   68.49
   1   6   8 1426.76   71.29
  -1   6  -8 1422.56   79.09
   1   6   8 1394.26   67.79
   1   6   8 1205.28   72.09
  -2  -6  -8   84.39   25.70
  -2  -6  -8   70.99    9.90
   2   6   8   67.49   16.40
  -2   6  -8   66.79    9.50
   2   6   8   86.89   12.10
   2   6   8   91.39   10.10
  -2   6  -8  124.49   22.00
  -3  -6  -8  939.31   51.59
  -3  -6  -8  968.20   73.09
  -3   6  -8  924.01   60.49
   3   6   8  994.70   49.99
   3   6   8  955.90   51.39
  -3   6  -8  980.90   49.20
  -4  -6  -8  250.77   20.70
  -4  -6  -8  324.57   50.79
  -4  -6  -8  378.56   53.19
   4   6   8  303.37   21.20
  -4   6  -8  268.27   33.00
  -4   6  -8  265.17   16.50
   4   6   8  269.77   20.00
  -5  -6  -8  216.18   45.80
  -5  -6  -8  353.36   55.49
  -5  -6  -8  247.88   20.80
  -5   6  -8  227.58   31.00
   5   6   8  232.08   17.80
   5   6   8  237.68   19.80
  -6  -6  -8  629.64   40.10
  -6  -6  -8  530.65   67.39
  -6  -6  -8  562.04   78.79
  -6   6  -8  624.94   49.30
   6   6   8  609.74   36.50
   6   6   8  699.23   39.00
  -7  -6  -8    7.40   10.10
  -7  -6  -8   23.50   36.20
  -7  -6  -8   13.50   30.70
   7   6   8   -5.70    9.00
  -7   6  -8   -2.80   14.90
  -8  -7   8   33.70   25.80
  -8   7   8   89.09   23.00
  -7  -7   8  167.78   33.60
   7   7  -8  144.99   20.50
  -7   7   8  140.09   24.60
   7   7  -8  153.58   19.40
  -6  -7   8  454.25   62.09
   6   7  -8  376.36   28.80
   6   7  -8  407.86   34.20
   6   7  -8  413.56   31.10
  -6   7   8  424.46   35.20
  -6   7   8  404.46   24.50
  -5  -7   8    9.30   14.00
  -5   7   8   13.70   11.10
   5   7  -8   -3.70    5.40
   5   7  -8    9.20    9.20
   5   7  -8    4.70    9.90
  -5   7   8   10.90    6.40
  -4  -7   8  956.60   63.69
   4   7  -8 1077.69   60.99
   4   7  -8  972.30   54.19
   4   7  -8  932.01   55.49
  -4   7   8 1059.69   52.09
  -3  -7   8  322.37   30.60
  -3   7   8  316.17   18.90
   3   7  -8  327.97   23.30
   3   7  -8  288.17   28.10
   3   7  -8  280.27   19.40
  -3   7   8  301.37   27.70
   3   7  -8  288.07   21.10
  -2  -7   8  576.64   40.60
   2  -7  -8  547.45   30.50
   2   7  -8  560.84   30.00
   2   7  -8  562.44   39.90
   2   7  -8  536.85   33.50
  -2   7   8  541.55   29.60
   2   7  -8  499.55   31.70
  -2   7   8  588.14   39.20
   1  -7  -8  848.02   44.70
  -1  -7   8  901.81   53.19
  -1   7   8  842.82   51.29
   1   7  -8  806.12   42.70
  -1   7   8  862.51   43.50
   1   7  -8  853.61   53.99
   1   7  -8  832.12   45.50
   0  -7   8   19.50   12.20
   0  -7  -8   20.70    6.40
   0   7   8   14.80    4.40
   0   7  -8   26.60    6.30
   0   7   8   14.90    9.50
   0   7  -8   20.70   11.90
  -1  -7  -8  466.05   42.10
  -1  -7  -8  397.96   26.60
   1   7   8  463.05   25.60
   1   7   8  402.06   30.30
   1   7   8  472.15   30.00
  -1   7  -8  440.46   26.30
  -1   7  -8  475.55   36.80
  -2  -7  -8   21.80    7.00
  -2  -7  -8   21.60   19.00
   2   7   8   34.70   14.30
   2   7   8   30.50    6.40
  -2   7  -8   25.00    6.40
   2   7   8   19.60    8.80
  -2   7  -8   26.60   13.90
  -3  -7  -8   51.69   27.30
  -3   7  -8   35.10   15.80
  -3   7  -8   34.10    7.20
   3   7   8   52.79    8.50
   3   7   8   47.80   10.10
  -4  -7  -8   20.10    8.10
  -4  -7  -8   53.39   29.00
   4   7   8   17.80    5.70
  -4   7  -8   14.40   13.70
   4   7   8   16.00    9.00
  -5  -7  -8    7.00   25.00
  -5  -7  -8    2.10   24.20
  -5  -7  -8    6.00    6.10
   5   7   8    5.40    5.40
  -5   7  -8   10.40   13.60
   5   7   8    4.90    8.40
  -6  -7  -8   -8.70   28.90
  -6  -7  -8   34.90   12.20
  -6  -7  -8   14.50   31.30
  -6   7  -8   22.90   16.90
   6   7   8    4.10   10.00
   6   7   8   20.30    7.40
  -7  -7  -8    4.20    9.30
  -7  -7  -8   11.90   37.00
  -7  -7  -8   -9.10   33.00
   7   7   8   -1.80   10.60
  -7   7  -8  -14.40   14.20
  -8  -8   8   -1.70   23.30
  -8   8   8   19.70   17.30
  -7  -8   8   10.40   21.40
   7   8  -8  -12.60    8.20
   7   8  -8    5.00    9.60
  -7   8   8   -5.00   11.40
  -6  -8   8    7.60   21.30
   6   8  -8    8.80   13.40
   6   8  -8    4.20    8.50
  -6   8   8    4.80   11.70
   6   8  -8    8.90    8.10
  -5  -8   8   -7.30   16.30
   5   8  -8    6.00    7.70
   5   8  -8    3.30    5.20
  -5   8   8    8.50    6.40
  -5   8   8    6.00   12.00
   5   8  -8    2.90    7.80
   5   8  -8    5.60   12.20
  -4  -8   8   79.09   23.60
   4   8  -8   77.19   18.60
   4   8  -8   62.69   11.20
  -4   8   8   71.89   10.10
  -4   8   8   61.89   18.00
   4   8  -8   47.40   11.20
   4   8  -8   79.89   12.00
  -3  -8   8   18.40   14.90
  -3   8   8    4.40    3.70
   3   8  -8    1.00    5.30
   3   8  -8    3.70    5.40
   3   8  -8   -3.10    5.10
   3   8  -8   -4.20    9.00
  -3   8   8    4.90   11.00
  -2  -8   8  254.77   31.90
   2  -8  -8  206.38   16.70
   2   8  -8  237.88   16.70
   2   8  -8  249.97   19.90
   2   8  -8  252.27   18.80
  -2   8   8  232.18   16.10
  -2   8   8  268.07   26.20
   2   8  -8  284.47   33.20
   1  -8  -8  358.66   25.10
  -1  -8   8  416.96   34.00
   1   8  -8  375.46   33.70
   1   8  -8  364.26   25.80
  -1   8   8  387.66   31.50
   1   8  -8  397.86   23.20
   1   8  -8  407.56   25.50
  -1   8   8  402.56   23.00
   0  -8   8  173.38   25.60
   0  -8  -8  119.59   14.40
   0   8   8  120.79   18.90
   0   8  -8  159.98   19.60
   0   8   8  139.69   11.60
   0   8  -8  156.08   26.40
  -1  -8  -8 1030.50   56.89
  -1  -8  -8 1071.29   70.89
  -1   8  -8 1060.49   55.99
   1   8   8 1058.19   59.39
   1   8   8 1047.00   54.39
  -1   8  -8 1063.19   66.89
  -1   8  -8 1091.79   55.59
  -2  -8  -8   77.79   12.20
   2   8   8   73.99   14.00
  -2   8  -8   64.09   10.10
   2   8   8   37.70   14.30
  -2   8  -8   60.19   18.00
  -2   8  -8   51.09    9.10
  -3  -8  -8  747.13   65.59
  -3  -8  -8  640.24   41.70
   3   8   8  748.13   39.60
  -3   8  -8  713.03   38.30
  -3   8  -8  771.82   54.39
  -3   8  -8  690.73   38.20
  -4  -8  -8  302.17   51.19
   4   8   8  353.66   26.00
  -4   8  -8  304.97   38.90
   4   8   8  319.27   22.20
  -5  -8  -8  211.18   50.99
  -5  -8  -8  104.49   18.60
  -5   8  -8  141.09   27.30
   5   8   8  195.68   19.20
  -6  -8  -8  443.36   36.20
  -6  -8  -8  500.05   70.79
  -6  -8  -8  401.06   70.09
  -6   8  -8  515.75   47.00
   6   8   8  526.65   34.50
  -7  -9   8   89.19   30.20
  -7   9   8   99.19   23.70
   7   9  -8  103.39   15.90
  -6  -9   8  305.37   46.80
  -6   9   8  410.06   37.60
   6   9  -8  326.47   29.70
   6   9  -8  416.56   28.50
  -5  -9   8    6.00   18.10
   5   9  -8   -4.70   15.20
   5   9  -8   -7.70    7.20
  -5   9   8   23.30   15.40
   5   9  -8   -5.40    8.10
  -5   9   8    2.30    6.30
   5   9  -8    0.60   13.60
  -4  -9   8  786.82   58.69
  -4   9   8  669.03   52.79
   4   9  -8  765.82   46.10
  -4   9   8  747.03   40.70
   4   9  -8  827.42   43.00
   4   9  -8  717.43   52.59
   4   9  -8  699.43   44.00
  -3  -9   8  274.57   36.30
  -3   9   8  221.88   15.60
   3   9  -8  221.08   17.60
   3   9  -8  175.08   18.30
   3   9  -8  205.98   20.30
   3   9  -8  250.17   32.40
  -3   9   8  222.18   35.00
  -2  -9   8  398.56   36.60
   2   9  -8  352.66   34.00
   2   9  -8  368.16   23.80
   2   9  -8  343.37   26.10
  -2   9   8  357.26   32.90
  -2   9   8  358.96   22.10
   2   9  -8  337.47   24.60
   1  -9  -8  584.54   33.30
  -1  -9   8  566.34   42.80
   1   9  -8  572.04   43.60
  -1   9   8  526.85   31.10
   1   9  -8  505.55   33.20
   1   9  -8  468.75   30.40
   1   9  -8  538.95   32.60
  -1   9   8  522.55   39.70
   0  -9  -8   27.70    8.70
   0  -9   8   22.60   14.60
   0   9  -8   25.40   14.00
   0   9   8   19.60   13.20
   0   9   8   19.40    6.00
   0   9  -8   21.80    7.10
   0   9  -8   12.80    6.90
  -1  -9  -8  372.46   26.10
   1  -9   8  414.46   35.20
   1   9   8  353.86   22.80
  -1   9  -8  366.86   24.30
  -1   9  -8  339.17   24.10
   1   9   8  316.07   31.60
  -1   9  -8  394.36   54.39
  -2  -9  -8   19.70   24.10
  -2  -9  -8   75.59   14.70
   2   9   8   33.10   11.50
  -2   9  -8   40.60   17.00
   2   9   8   43.10    8.30
   2   9   8   35.00   14.50
  -2   9  -8   54.99    9.70
  -2   9  -8   38.70    8.60
  -3  -9  -8   10.80   25.70
  -3  -9  -8   10.50    6.60
  -3   9  -8   16.00    9.20
   3   9   8   30.00    7.80
   3   9   8   23.50   10.20
  -3   9  -8   30.60   17.00
  -4  -9  -8   47.10   30.70
   4   9   8   14.90    9.80
  -4   9  -8   27.40   17.80
   4   9   8   32.60    7.80
  -5  -9  -8    4.60    9.00
  -5  -9  -8   23.70   32.80
  -5   9  -8    0.30   15.30
   5   9   8   -9.30    8.40
  -6 -10   8    6.00   23.10
  -6  10   8   -2.70   13.90
   6  10  -8    9.80   10.10
  -5 -10   8   -0.60   20.40
   5  10  -8    4.60    8.40
  -5  10   8   -4.50   12.50
  -5  10   8    6.60    6.70
   5  10  -8    2.10    8.20
   5  10  -8   -7.50   13.20
   5  10  -8    5.70    9.70
  -4 -10   8   44.80   21.90
   4  10  -8   25.80    9.50
   4  10  -8   32.80   11.00
  -4  10   8   39.70   18.40
   4  10  -8   45.70   18.20
  -3 -10   8   16.90   18.70
   3  10  -8    6.90    6.80
   3  10  -8    8.60    8.70
  -3  10   8    6.60    5.10
   3  10  -8   18.70    8.50
   3  10  -8    7.20   13.30
  -3  10   8   -1.00   13.20
  -2 -10   8  179.58   31.00
   2  10  -8  123.49   16.50
  -2  10   8  169.08   27.10
  -2  10   8  188.18   14.30
   2  10  -8  162.18   15.90
   2  10  -8  160.08   28.10
   2  10  -8  169.68   20.00
  -1 -10   8  124.39   24.80
   1  10  -8  128.89   15.40
   1  10  -8  137.09   16.60
  -1  10   8  138.69   24.70
   1  10  -8  128.59   26.00
   1  10  -8  133.79   16.00
  -1  10   8  141.19   12.80
   0 -10  -8  136.59   17.80
   0 -10   8  164.68   28.50
   0  10   8  139.59   22.70
   0  10  -8  108.39   14.60
   0  10   8  153.38   13.60
   0  10  -8  163.68   18.70
   0  10  -8  140.29   25.70
  -1 -10  -8  485.75   35.00
   1 -10   8  626.84   45.60
  -1  10  -8  559.54   46.20
  -1  10  -8  521.85   32.70
   1  10   8  564.64   39.30
  -1  10  -8  528.95   32.70
   1  10   8  551.34   32.00
  -2 -10  -8   17.60   26.40
  -2 -10  -8    5.00    7.10
   2 -10   8   15.80   17.30
   2  10   8    7.60    5.40
  -2  10  -8    9.70    5.90
  -2  10  -8    1.30    5.30
  -2  10  -8   28.00   16.00
   2  10   8  -10.20    8.50
  -3 -10  -8  420.26   58.19
  -3 -10  -8  350.16   30.50
  -3  10  -8  291.87   40.10
  -3  10  -8  393.66   23.60
   3  10   8  391.46   30.00
  -3  10  -8  374.06   24.30
   3  10   8  380.86   25.50
  -4 -10  -8  163.98   47.20
   4  10   8  127.89   19.50
  -4  10  -8  119.29   28.40
  -5 -11   8   29.90   26.90
  -5  11   8   11.40    8.00
   5  11  -8   29.10   11.30
  -5  11   8   17.10   17.00
  -4 -11   8  547.25   53.49
  -4  11   8  527.45   31.20
   4  11  -8  534.75   34.20
  -4  11   8  460.45   44.50
   4  11  -8  480.35   35.60
   4  11  -8  547.25   48.70
   4  11  -8  483.05   35.50
  -3 -11   8   72.79   26.40
   3  11  -8   60.79   18.40
   3  11  -8   44.50   11.10
  -3  11   8   49.20   20.80
  -3  11   8   47.90    9.50
   3  11  -8   49.60   12.00
   3  11  -8   49.40   20.00
   2  11  -8  293.07   24.50
   2  11  -8  283.07   23.80
   2  11  -8  385.26   46.70
   2  11  -8  295.47   24.30
  -2  11   8  286.47   36.50
  -2  11   8  318.87   21.20
  -1 -11   8  321.97   41.50
   1  11  -8  293.57   22.80
  -1  11   8  275.37   19.70
   1  11  -8  231.28   21.40
   1  11  -8  231.68   35.50
  -1  11   8  256.27   34.50
   1  11  -8  272.77   23.30
   0 -11   8    6.20   17.50
   0  11  -8   15.80    7.70
   0  11  -8    0.10   13.80
   0  11   8   16.30   14.80
   0  11   8   12.10    5.90
   0  11  -8    1.30    6.30
   1 -11   8  205.88   30.90
  -1 -11  -8   82.99   25.20
  -1  11  -8  184.28   17.30
   1  11   8  134.59   23.10
  -1  11  -8  144.19   16.90
  -1  11  -8  214.48   35.80
   1  11   8  188.08   16.20
  -2 -11  -8   47.90   31.40
   2 -11   8   22.20   19.50
  -2  11  -8   28.10    8.10
  -2  11  -8   19.30    8.50
   2  11   8   14.70    6.90
  -2  11  -8   19.10   15.40
   2  11   8   47.20   14.90
  -3 -11  -8   39.70   35.20
   3 -11   8   24.00   22.40
  -3  11  -8   18.40    7.00
   3  11   8   22.90    8.70
  -3  11  -8   11.00    6.70
   3  11   8    4.80   10.50
  -3  11  -8   10.50   16.50
  -2 -12   8  149.69   35.20
   2  12  -8   87.99   20.80
   2  12  -8  119.29   16.60
  -2  12   8  110.09   16.10
  -2  12   8  112.99   25.20
   2  12  -8  111.89   16.70
   2  12  -8  117.09   28.90
  -1 -12   8  136.59   32.00
  -1  12   8   92.09   22.50
   1  12  -8  115.89   16.70
  -1  12   8  160.58   15.00
   1  12  -8  115.79   17.60
   1  12  -8  131.69   19.00
   1  12  -8  119.19   28.30
   0  12   8   98.89   13.70
   0  12  -8   52.49   22.20
   0  12  -8   68.39   13.40
   0  12   8   70.09   19.90
   0  12  -8   73.19   13.10
 -10   0   9   37.50   29.50
  -9   0   9    5.10   21.00
  -8   0   9    3.00   16.70
  -7   0   9   30.30    7.30
  -7   0   9   25.10   15.00
  -6   0   9   35.60   14.70
  -6   0   9   48.90    7.90
   6   0  -9   50.59    9.10
  -5   0   9    5.50    3.50
   5   0  -9   18.80    9.60
  -5   0   9   14.00    7.50
   5   0  -9   13.40    5.50
   5   0  -9   27.10   14.40
  -5   0   9   11.50    9.70
   4   0  -9  217.78   16.00
   4   0  -9  252.47   22.10
  -4   0   9  217.28   15.40
  -4   0   9  236.78   20.70
   4   0  -9  232.58   18.20
   4   0  -9  239.28   33.00
  -4   0   9  226.48   18.90
  -3   0   9  273.57   19.90
  -3   0   9  278.87   18.20
  -3   0   9  249.88   34.50
  -3   0   9  304.67   21.60
   3   0  -9  284.77   19.40
   3   0  -9  272.77   33.70
  -2   0   9  143.29   26.90
   2   0  -9  118.69   23.40
   2   0  -9  173.28   12.70
  -2   0   9  129.49   11.70
   2   0  -9  148.89   11.80
  -2   0   9  157.08   13.00
  -1   0   9 3147.08  155.58
   1   0  -9 3457.75  155.98
  -1   0   9 3184.38  171.38
   1   0  -9 3322.37  171.28
   0   0  -9  576.94   44.70
   0   0  -9  528.75   28.70
   0   0   9  475.25   44.30
   0   0   9  509.15   28.60
   0   0   9  569.44   30.20
   1   0   9 3181.38  149.09
  -1   0  -9 3076.99  146.99
  -1   0  -9 3222.68  165.08
   1   0   9 3028.40  177.98
   1   0   9 3020.20  173.18
  -2   0  -9  849.32   42.70
   2   0   9  757.12   61.19
  -2   0  -9  800.52   58.89
   2   0   9  912.31   69.39
   2   0   9  873.91   43.90
  -3   0  -9  677.93   52.09
   3   0   9  671.23   36.00
  -3   0  -9  691.23   35.20
   3   0   9  673.63   57.39
  -3   0  -9  672.13   63.09
  -4   0  -9  967.40   90.49
   4   0   9  857.11   70.79
  -4   0  -9 1033.30   82.39
  -4   0  -9  964.20   47.20
   4   0   9  894.21   47.70
  -5   0  -9  -18.40   20.70
  -5   0  -9    8.30   15.60
  -5   0  -9   -1.40    3.00
   5   0   9   18.50   28.10
  -6   0  -9  735.13   55.19
  -6   0  -9  546.65   83.49
  -6   0  -9  687.93   38.40
   6   0   9  768.92   45.30
   7   0   9  147.49   14.00
  -7   0  -9   89.29   44.20
  -7   0  -9  143.09   14.00
  -7   0  -9  116.79   25.60
   8   0   9   37.70   10.30
  -8   0  -9   51.29   10.90
  -8   0  -9    2.60   40.40
 -10  -1   9   62.49   31.30
 -10   1   9   91.49   36.40
  -9  -1   9  183.58   37.80
  -9   1   9  163.48   34.70
  -8  -1   9  564.04   48.00
  -8   1   9  465.85   27.40
  -8   1   9  484.25   45.90
  -7  -1   9   79.69   11.20
  -7  -1   9   70.09   20.60
  -7   1   9   50.29    7.80
  -7   1   9   66.69   20.70
   7   1  -9   53.59   10.70
   6  -1  -9  927.01   49.10
   6  -1  -9  895.41   54.19
  -6  -1   9  942.61   48.00
  -6  -1   9  979.60   58.79
   6   1  -9  883.41   49.20
  -6   1   9  950.40   58.09
  -6   1   9  899.61   47.20
  -6   1   9  913.71   54.39
   5  -1  -9  347.07   26.40
   5  -1  -9  369.26   42.60
  -5  -1   9  329.87   28.70
   5  -1  -9  370.86   22.80
  -5  -1   9  345.57   21.70
   5   1  -9  389.96   23.50
  -5   1   9  380.76   28.60
  -5   1   9  387.66   27.20
  -5   1   9  347.07   21.50
  -4  -1   9  973.50   49.50
   4  -1  -9 1016.40   50.29
  -4  -1   9  855.81   62.69
  -4  -1   9 1010.00   55.59
   4  -1  -9 1046.50   65.69
   4  -1  -9  969.60   52.49
   4   1  -9  947.51   53.89
  -4   1   9  968.50   56.09
  -4   1   9  987.60   49.80
   4   1  -9  943.01   59.19
   4   1  -9  923.51   51.89
  -4   1   9  959.20   53.39
   4   1  -9  933.71   50.19
  -3  -1   9 1829.82   93.69
   3  -1  -9 1837.22   91.59
   3  -1  -9 1850.31  106.29
  -3  -1   9 1854.31   91.79
  -3  -1   9 1921.01  107.09
  -3  -1   9 1888.41   95.69
  -3   1   9 1927.21   93.99
  -3   1   9 1953.60   92.49
   3   1  -9 1949.01   92.29
   3   1  -9 1886.01  102.79
   3   1  -9 1865.71   92.69
  -3   1   9 1838.42   94.09
   2  -1  -9   73.49    8.90
   2  -1  -9   87.49   11.40
  -2  -1   9   80.19    9.60
  -2  -1   9   89.09   14.60
  -2  -1   9   79.69   23.30
  -2  -1   9   67.09   10.00
   2  -1  -9   63.09   19.00
   2   1  -9  103.39   21.10
  -2   1   9   85.99   10.60
   2   1  -9   78.69    9.80
  -2   1   9   72.59   10.90
   2   1  -9   58.69    7.90
  -1  -1   9 1373.26   88.09
  -1  -1   9 1388.66   72.39
   1  -1  -9 1504.25   74.19
  -1  -1   9 1429.06   73.59
   1  -1  -9 1494.45   88.79
   1  -1  -9 1445.46   72.39
  -1   1   9 1560.84   73.99
   1   1  -9 1498.45   73.39
   1   1  -9 1582.44   86.99
   1   1  -9 1521.95   72.39
  -1   1   9 1537.65   74.19
   0  -1   9   40.80    7.00
   0  -1  -9   31.20    5.80
   0  -1  -9   50.89    7.00
   0  -1   9   35.10   17.40
   0  -1  -9   23.60   17.00
   0   1   9   49.00    7.60
   0   1   9   35.00    6.90
   0   1  -9   32.50    6.00
   0   1   9   18.30   18.30
   0   1  -9   59.79   18.30
   0   1   9   26.50   15.60
  -1  -1  -9  241.58   14.70
  -1  -1  -9  339.87   41.50
   1  -1   9  258.97   41.70
   1  -1   9  288.77   45.90
  -1  -1  -9  232.18   14.70
   1  -1   9  256.77   16.80
  -1   1  -9  289.67   36.80
  -1   1  -9  234.28   15.20
   1   1   9  268.37   40.10
   1   1   9  233.98   15.40
   1   1   9  231.98   15.70
   2  -1   9  164.68   31.40
   2  -1   9  124.69   33.30
  -2  -1  -9  121.99    9.40
  -2  -1  -9  113.49   26.80
  -2  -1  -9  127.89    9.50
   2  -1   9  113.79   10.90
   2   1   9  141.19   10.40
   2   1   9  124.89    9.70
  -2   1  -9  118.09    9.40
   2   1   9  146.69   31.20
  -2   1  -9  161.48   26.70
   2   1   9  148.49   29.60
  -3  -1  -9   12.40   15.80
  -3  -1  -9   44.00   26.90
   3  -1   9   47.20    8.10
   3  -1   9   26.40   21.80
  -3  -1  -9   40.50    6.80
   3   1   9   51.79    6.70
  -3   1  -9   59.99    7.20
   3   1   9   45.60   22.10
   3   1   9   52.39    7.20
  -3   1  -9   68.69   18.50
  -4  -1  -9   56.39   24.30
  -4  -1  -9   37.70    6.30
   4  -1   9   28.70    6.60
   4  -1   9   34.00   25.30
  -4  -1  -9   51.39   29.60
  -4   1  -9   57.79   31.00
  -4   1  -9   31.20   15.70
  -4   1  -9   34.20    6.40
   4   1   9   25.30    6.20
   4   1   9   38.80    6.80
  -5  -1  -9   34.60   21.00
  -5  -1  -9   23.40   27.70
  -5   1  -9    3.90    3.60
   5   1   9    4.90    5.00
   5   1   9    5.40    4.20
  -5   1  -9    7.50   12.80
  -5   1  -9   21.40   27.30
  -6  -1  -9  120.09   28.90
  -6  -1  -9  191.88   50.19
  -6  -1  -9  201.08   15.70
  -6   1  -9  182.98   14.10
  -6   1  -9  150.68   27.40
  -6   1  -9  177.98   54.79
   6   1   9  205.98   15.70
  -7  -1  -9   -1.80   18.00
  -7  -1  -9    7.10    6.30
  -7  -1  -9   15.70   35.40
   7   1   9   12.20    7.20
  -7   1  -9    8.70   15.00
  -7   1  -9   -5.20   34.80
  -7   1  -9   12.90    6.30
  -8  -1  -9  137.39   19.60
   8  -1   9   90.09   13.20
  -8  -1  -9   65.99   48.00
  -8   1  -9  124.09   14.40
  -8   1  -9  196.98   63.69
  -8   1  -9   98.49   22.90
 -10  -2   9   45.40   28.70
 -10   2   9  -14.50   27.70
  -9  -2   9  -10.00   19.80
  -9   2   9   15.50   23.80
  -8  -2   9    1.10   16.60
  -8   2   9   12.90   18.40
  -8   2   9    4.40    4.40
  -7  -2   9    4.70   14.20
  -7  -2   9   12.60    5.70
  -7   2   9   33.70   15.80
  -7   2   9   12.90    4.60
   7   2  -9   16.00    8.00
  -7   2   9    4.90   10.30
   6  -2  -9   85.89   15.80
  -6  -2   9   81.89   10.30
  -6  -2   9  100.19   21.20
   6  -2  -9  111.79   26.90
  -6   2   9   71.99    9.30
  -6   2   9   74.09   15.70
   6   2  -9   87.79   14.00
  -6   2   9  101.19   19.40
   5  -2  -9   14.00    5.20
  -5  -2   9    9.20    4.10
   5  -2  -9   10.10    8.00
  -5  -2   9   11.40   10.20
   5  -2  -9   28.20   17.10
  -5   2   9   12.20    4.60
  -5   2   9   24.30    9.10
   5   2  -9   15.60    5.70
  -5   2   9   17.10   10.10
   4  -2  -9  552.24   46.00
  -4  -2   9  554.34   45.30
  -4  -2   9  488.55   40.10
   4  -2  -9  505.85   29.10
  -4  -2   9  504.35   29.90
   4  -2  -9  505.95   34.90
   4   2  -9  552.94   32.70
   4   2  -9  536.25   33.90
   4   2  -9  542.15   35.10
  -4   2   9  539.35   32.90
  -4   2   9  536.65   30.20
   4   2  -9  522.75   36.50
  -4   2   9  555.84   34.00
  -3  -2   9  675.03   40.70
   3  -2  -9  680.93   38.50
   3  -2  -9  654.23   34.80
  -3  -2   9  689.33   35.70
  -3  -2   9  614.94   49.00
   3  -2  -9  703.93   52.19
  -3   2   9  671.93   36.40
   3   2  -9  644.24   36.70
  -3   2   9  628.04   38.30
  -3   2   9  668.23   37.10
   3   2  -9  640.74   43.50
   3   2  -9  639.24   36.00
   2  -2  -9  328.67   20.60
   2  -2  -9  357.76   24.20
  -2  -2   9  409.16   37.00
   2  -2  -9  426.26   38.30
  -2  -2   9  351.86   21.80
  -2  -2   9  379.96   26.80
   2   2  -9  392.46   22.00
  -2   2   9  337.77   23.60
   2   2  -9  400.56   31.60
  -2   2   9  382.76   22.50
   1  -2  -9 3223.18  159.78
   1  -2  -9 3540.35  162.68
  -1  -2   9 3349.36  161.28
   1  -2  -9 3531.75  178.48
  -1  -2   9 3183.98  174.88
  -1   2   9 3459.25  163.08
   1   2  -9 3409.36  161.48
  -1   2   9 3446.66  161.08
   1   2  -9 3435.66  172.08
   0  -2   9   87.99   31.70
   0  -2  -9  101.29    9.80
   0  -2   9  121.29   10.30
   0  -2  -9  114.89   23.70
   0   2  -9  125.59   21.10
   0   2  -9  100.19    9.60
   0   2   9  109.89    9.00
   0   2   9  106.69   12.70
   0   2   9  123.09   27.00
   1  -2   9 2464.95  146.29
   1  -2   9 2830.92  132.29
  -1  -2  -9 2852.81  130.59
  -1  -2  -9 3003.70  151.58
  -1  -2  -9 2665.43  130.59
   1   2   9 2623.54  147.89
  -1   2  -9 2868.31  144.49
  -1   2  -9 2714.73  131.29
   1   2   9 2675.63  131.59
   1   2   9 2856.51  130.99
  -2  -2  -9 1313.17   65.29
   2  -2   9 1338.87   66.79
  -2  -2  -9 1352.76   65.29
   2  -2   9 1279.07   96.79
  -2  -2  -9 1426.26   90.29
  -2  -2  -9 1371.06   85.89
   2  -2   9 1376.16   84.69
   2   2   9 1311.47   82.89
  -2   2  -9 1297.97   65.19
  -2   2  -9 1375.86   78.99
   2   2   9 1278.87   65.09
  -3  -2  -9  582.84   30.30
   3  -2   9  512.65   31.00
   3  -2   9  571.74   51.39
  -3  -2  -9  597.34   56.69
  -3  -2  -9  533.45   49.70
  -3   2  -9  604.84   43.80
  -3   2  -9  535.45   29.20
   3   2   9  566.94   30.10
  -4  -2  -9 1127.69   87.19
  -4  -2  -9 1083.09   56.39
  -4  -2  -9 1163.88  109.29
  -4   2  -9 1105.29   54.89
   4   2   9 1157.48   56.29
  -4   2  -9 1160.68   70.09
   4   2   9 1088.09   55.69
  -5  -2  -9   10.70   19.30
  -5  -2  -9   41.10   27.60
  -5  -2  -9   10.60    5.40
   5   2   9    9.10    4.50
   5   2   9   20.40    6.20
  -5   2  -9   23.30    5.10
  -5   2  -9   21.90   13.80
  -6  -2  -9  736.93   41.00
  -6  -2  -9  748.63   95.69
  -6  -2  -9  645.74   60.79
  -6   2  -9  744.33   38.00
  -6   2  -9  745.33   97.09
   6   2   9  710.73   39.50
  -6   2  -9  739.63   52.69
  -7  -2  -9  134.49   31.70
  -7  -2  -9  120.59   49.80
  -7  -2  -9  177.98   17.00
  -7   2  -9   98.19   48.40
   7   2   9  166.48   16.30
  -7   2  -9  153.98   26.90
  -7   2  -9  190.68   14.30
  -8  -2  -9   76.79   49.20
  -8  -2  -9   57.29   12.90
  -8   2  -9   99.19   57.29
  -8   2  -9   54.69    9.00
  -8   2  -9   73.59   21.00
   8   2   9   56.09   11.70
 -10  -3   9   64.79   32.80
 -10   3   9   91.39   40.90
  -9  -3   9  112.39   33.00
  -9   3   9  139.29   33.70
  -8   3   9  516.75   45.80
  -8   3   9  379.36   22.60
   8   3  -9  390.36   32.60
   8   3  -9  409.56   38.60
   7  -3  -9   14.60   12.70
  -7  -3   9   20.30   16.60
   7  -3  -9   32.40   22.80
   7   3  -9   13.10    8.00
  -7   3   9    9.70    4.20
  -7   3   9   22.50   11.40
  -7   3   9   23.80   16.50
  -6  -3   9  781.92   55.69
  -6  -3   9  885.41   45.90
   6   3  -9  852.21   47.50
  -6   3   9  883.41   44.30
  -6   3   9  862.61   52.59
  -6   3   9  821.82   51.89
  -5  -3   9  224.98   27.90
   5  -3  -9  220.78   14.40
  -5  -3   9  177.68   31.30
   5  -3  -9  205.48   17.90
  -5  -3   9  231.58   16.00
   5   3  -9  218.38   20.50
  -5   3   9  204.18   15.20
   5   3  -9  189.68   16.30
  -5   3   9  195.68   19.70
  -5   3   9  209.28   20.30
  -4  -3   9  858.41   58.49
   4  -3  -9  814.62   43.00
  -4  -3   9  845.52   51.69
  -4  -3   9  848.42   44.60
  -4   3   9  842.02   45.00
  -4   3   9  905.81   46.80
  -4   3   9  795.52   48.50
   4   3  -9  893.11   45.90
   4   3  -9  844.42   49.90
   4   3  -9  847.52   47.70
   3  -3  -9  927.81   57.39
   3  -3  -9 1073.89   53.19
  -3  -3   9 1048.10   67.59
  -3   3   9 1093.39   54.99
   3   3  -9 1121.59   62.09
   3   3  -9 1091.99   56.39
   3   3  -9 1062.99   55.39
  -3   3   9 1147.29   55.59
  -2  -3   9   69.79    9.90
  -2  -3   9   65.79   18.90
   2  -3  -9   76.69    8.30
  -2  -3   9   74.89   14.40
   2  -3  -9   80.19   12.40
  -2   3   9   55.39    8.50
   2   3  -9   61.29    8.90
  -2   3   9   80.59   13.00
   2   3  -9   61.59   14.30
   2   3  -9   92.79   11.90
   1  -3  -9  511.55   26.20
  -1  -3   9  490.05   27.40
   1  -3  -9  497.65   31.50
  -1  -3   9  517.35   41.10
  -1   3   9  462.55   29.80
   1   3  -9  446.46   29.00
   1   3  -9  517.35   36.50
  -1   3   9  454.05   40.20
  -1   3   9  464.95   26.40
   0  -3   9   91.39   21.80
   0  -3  -9   91.49   15.40
   0  -3  -9   79.29   22.20
   0  -3  -9   75.79    7.20
   0  -3   9   84.09    9.40
   0   3   9   93.49   12.70
   0   3  -9   88.09   10.80
   0   3   9   76.19   19.70
   0   3  -9   95.39   19.10
   0   3   9   75.39    7.40
   1  -3   9   59.09   19.70
   1  -3   9   54.79    7.80
  -1  -3  -9   55.99   21.20
  -1  -3  -9   37.70    5.80
   1   3   9   60.69    7.40
  -1   3  -9   68.59    9.10
   1   3   9   41.80    8.50
  -1   3  -9   63.69   18.40
   1   3   9   60.69   18.90
   2  -3   9   86.49   27.40
  -2  -3  -9  138.19   34.10
  -2  -3  -9  127.49   30.80
  -2  -3  -9  107.39   10.40
   2  -3   9  102.09   10.00
  -2  -3  -9  100.19    8.80
   2   3   9   93.19   10.80
   2   3   9   94.09    8.40
  -2   3  -9  132.49   22.30
  -2   3  -9   95.69    9.00
   2   3   9   95.09   22.80
  -3  -3  -9  119.89   29.30
   3  -3   9  113.69   12.70
  -3  -3  -9  113.69   10.00
  -3  -3  -9  117.49   32.10
   3   3   9  102.29   16.10
   3   3   9  120.29    9.90
  -3   3  -9  115.19   21.40
  -3   3  -9  114.89   10.10
  -4  -3  -9   16.40    5.30
  -4  -3  -9   27.00   25.20
  -4  -3  -9   -3.20   18.50
   4   3   9   19.70    5.30
  -4   3  -9   13.80   11.30
   4   3   9    8.00    5.50
  -5  -3  -9    7.70   24.80
  -5  -3  -9    2.20    4.30
  -5  -3  -9  -24.90   16.20
  -5   3  -9    4.40    3.20
   5   3   9   -7.50    5.40
   5   3   9   -2.50    3.90
  -5   3  -9   -0.40   11.00
  -6  -3  -9  116.59   14.60
  -6  -3  -9   59.99   28.90
  -6   3  -9   94.89   21.70
  -6   3  -9  154.48   11.00
   6   3   9  159.88   15.20
  -7  -3  -9    5.80    7.20
  -7  -3  -9   -6.40   33.60
  -7  -3  -9    1.70   23.90
   7   3   9    7.30    8.50
  -7   3  -9    0.10   13.50
  -8  -3  -9  101.19   15.90
  -8  -3  -9   19.50   41.90
  -8   3  -9   86.89   23.10
 -10  -4   9  -10.00   25.30
 -10   4   9    4.60   30.80
  -9  -4   9   33.90   27.10
  -9   4   9    6.20   24.40
  -8  -4   9   16.60   20.80
  -8   4   9   13.80   13.20
   8   4  -9   -1.00    9.20
  -8   4   9   21.40   20.10
   8   4  -9   -6.30    6.80
   7  -4  -9   -5.30   10.50
  -7  -4   9   -9.30   14.30
   7  -4  -9  -11.80   11.50
   7   4  -9    1.10    7.00
  -7   4   9   13.50   16.30
   7   4  -9   -7.40    8.00
  -7   4   9    3.70   10.50
  -7   4   9    2.30    3.60
  -6  -4   9   71.99   19.20
   6  -4  -9   76.89   13.90
  -6   4   9   74.89   17.20
  -6   4   9   62.49   14.80
   6   4  -9   86.29   14.50
  -6   4   9   59.09    8.70
  -5  -4   9    8.50    6.10
  -5  -4   9   16.80   12.30
  -5  -4   9    1.20   16.90
  -5   4   9   21.50   10.20
   5   4  -9   17.70    9.20
   5   4  -9    8.90    5.70
  -5   4   9   17.50    6.30
   4  -4  -9  650.33   33.60
  -4  -4   9  621.04   43.30
  -4  -4   9  650.53   35.90
  -4  -4   9  628.44   49.00
  -4   4   9  632.04   40.60
   4   4  -9  659.13   41.00
   4   4  -9  639.84   39.30
  -4   4   9  632.64   36.10
   4   4  -9  698.43   37.30
   3  -4  -9  335.27   19.30
  -3  -4   9  335.77   33.80
  -3  -4   9  339.87   27.60
  -3  -4   9  359.36   21.40
   3   4  -9  330.47   27.50
  -3   4   9  325.97   25.00
  -3   4   9  340.07   21.40
  -2  -4   9  241.68   16.70
   2  -4  -9  221.48   15.00
   2  -4  -9  248.78   20.00
  -2  -4   9  290.37   23.80
  -2  -4   9  283.57   36.30
   2   4  -9  284.97   24.50
  -2   4   9  255.07   16.40
   2   4  -9  286.17   18.00
   2   4  -9  249.68   17.50
  -2   4   9  264.97   21.30
   1  -4  -9 1896.31   89.59
  -1  -4   9 1749.62   90.49
   1  -4  -9 1718.83   91.89
  -1  -4   9 1656.83  102.79
  -1   4   9 1974.90   90.09
   1   4  -9 1931.71   91.69
  -1   4   9 1915.91   98.09
  -1   4   9 1963.30   98.89
   1   4  -9 1935.81  102.89
   0  -4  -9   18.40    6.10
   0  -4   9    8.70    4.10
   0  -4   9   19.80   14.90
   0  -4  -9    7.20    3.20
   0   4  -9    5.20    8.00
   0   4   9   19.00   12.50
   0   4   9   12.00    3.70
   0   4   9    9.10    6.30
   0   4  -9   11.50    4.60
  -1  -4  -9 1956.20  113.89
  -1  -4  -9 1982.80   96.19
  -1  -4  -9 1942.81   96.39
   1  -4   9 2030.80   95.69
  -1   4  -9 1955.60   95.79
   1   4   9 1979.70  105.69
  -1   4  -9 2006.20  106.19
   1   4   9 1906.31   94.59
  -2  -4  -9  713.43   39.40
  -2  -4  -9  837.92   62.59
  -2  -4  -9  910.41   63.89
   2  -4   9  790.02   39.80
  -2   4  -9  735.13   39.40
  -2   4  -9  730.93   49.99
   2   4   9  776.42   52.49
   2   4   9  719.83   38.90
   2   4   9  725.93   40.20
  -3  -4  -9  329.17   52.19
  -3  -4  -9  376.76   50.59
  -3  -4  -9  288.17   20.10
  -3   4  -9  316.27   30.50
  -3   4  -9  324.37   19.20
   3   4   9  345.37   21.00
  -4  -4  -9  790.22   71.19
  -4  -4  -9  718.43   65.69
  -4  -4  -9  831.52   44.70
  -4   4  -9  841.32   55.49
   4   4   9  924.71   44.50
   4   4   9  835.22   43.30
  -4   4  -9  749.42   41.30
  -5  -4  -9    3.50    5.00
  -5  -4  -9   20.50   23.20
  -5  -4  -9  -22.00   21.80
   5   4   9   11.30    4.90
  -5   4  -9   16.80   13.70
  -5   4  -9    7.90    3.40
   5   4   9   10.80    7.00
  -6  -4  -9  702.93   67.79
  -6  -4  -9  606.84   82.99
  -6  -4  -9  654.73   40.50
  -6   4  -9  720.53   50.69
   6   4   9  692.43   38.80
   6   4   9  650.73   37.60
  -7  -4  -9  152.08   50.69
  -7  -4  -9   92.49   35.30
  -7  -4  -9   90.69   15.10
   7   4   9  113.79   25.90
  -7   4  -9   88.19   22.60
  -8  -4  -9   70.39   50.29
  -8  -4  -9   33.30   12.50
   8   4   9   54.69   12.80
  -8   4  -9   29.20   18.80
  -9  -5   9  145.19   34.70
  -9   5   9  100.99   23.00
  -9   5   9  158.58   37.90
   8  -5  -9  241.98   35.50
  -8  -5   9  399.66   52.39
  -8   5   9  350.76   46.10
  -8   5   9  399.46   35.00
   8   5  -9  299.17   28.80
   8   5  -9  434.86   37.20
  -7  -5   9   19.50   32.00
   7  -5  -9    0.70   11.10
  -7   5   9    9.80    4.40
   7   5  -9    3.30   10.00
  -7   5   9   10.90   10.60
   7   5  -9   -3.10    7.60
  -7   5   9   18.60   16.40
  -6  -5   9  726.03   55.09
  -6   5   9  835.72   51.49
   6   5  -9  765.52   47.20
  -6   5   9  834.82   41.80
   6   5  -9  742.33   45.10
  -5  -5   9  125.59   26.10
  -5  -5   9  158.88   25.20
   5   5  -9  166.18   21.00
  -5   5   9  160.98   14.50
  -5   5   9  158.68   22.50
   5   5  -9  157.38   18.90
  -4  -5   9  548.65   31.80
  -4  -5   9  540.55   44.90
   4  -5  -9  564.64   29.10
  -4  -5   9  531.75   40.30
  -4   5   9  466.35   36.30
   4   5  -9  613.14   34.00
   4   5  -9  572.34   37.80
  -4   5   9  541.15   39.00
  -3  -5   9 1042.00   66.79
   3  -5  -9 1052.79   51.39
  -3  -5   9 1065.09   61.29
  -3  -5   9 1017.20   53.49
  -3   5   9  957.80   58.29
  -3   5   9 1068.79   52.99
   3   5  -9 1012.90   54.39
   2  -5  -9    6.20    3.00
  -2  -5   9    7.10    8.70
  -2  -5   9   11.10   16.70
  -2   5   9    3.00    3.30
   2   5  -9    5.60    4.40
   2   5  -9   12.80    8.80
  -2   5   9   15.00    7.90
  -1  -5   9  688.43   36.50
   1  -5  -9  695.93   35.40
  -1  -5   9  731.33   44.60
  -1   5   9  623.54   34.90
  -1   5   9  687.93   41.30
   1   5  -9  675.23   44.50
   1   5  -9  633.54   36.70
   0  -5   9  209.98   14.70
   0  -5  -9  212.58   14.30
   0   5  -9  272.37   30.80
   0   5   9  206.68   17.30
   0   5   9  193.38   17.90
   0   5   9  188.28   22.40
   0   5  -9  194.18   15.10
   1  -5   9   23.00    6.60
  -1  -5  -9   35.20   18.20
  -1  -5  -9   24.30    6.00
   1   5   9   23.40    5.30
   1   5   9   27.00    8.30
  -1   5  -9   26.20   12.00
  -1   5  -9   24.30    6.10
   1   5   9   16.30   11.40
   2  -5   9   41.50    7.20
  -2  -5  -9   59.69   24.50
   2   5   9   57.39   17.80
   2   5   9   54.39    8.00
  -2   5  -9   50.09   14.90
  -2   5  -9   39.80    8.60
   2   5   9   50.19    9.40
  -3  -5  -9   78.89   28.20
  -3  -5  -9   85.19   11.70
  -3  -5  -9   93.09   29.50
   3   5   9  130.39   14.30
   3   5   9  101.59    9.90
  -3   5  -9  136.49   23.30
  -3   5  -9  103.69   11.00
  -4  -5  -9   21.90   23.10
  -4  -5  -9    0.00    4.40
  -4  -5  -9  -26.20   17.10
   4   5   9    0.70    3.80
  -4   5  -9   -2.00    9.80
   4   5   9   -1.20    5.80
  -4   5  -9    3.00    3.20
  -5  -5  -9   15.00    7.10
  -5  -5  -9   17.30   27.30
  -5  -5  -9  -19.90   20.70
  -5   5  -9   -8.20   11.00
   5   5   9   -0.70    4.20
   5   5   9  -12.50    6.50
  -6  -5  -9   97.29   36.50
  -6  -5  -9  154.48   19.20
  -6  -5  -9   87.89   40.10
   6   5   9  163.08   19.10
   6   5   9  148.19   14.40
  -6   5  -9   73.79   20.20
  -7  -5  -9   18.80   35.80
  -7  -5  -9    4.30    7.80
  -7  -5  -9    5.40   29.50
   7   5   9    4.30    9.90
  -7   5  -9   -0.60   16.70
  -9  -6   9   12.10   24.50
  -9   6   9   20.10   17.60
  -9   6   9   31.80   31.20
  -8  -6   9   -3.00   19.10
   8   6  -9   -2.10    9.20
  -8   6   9    8.30   13.00
   8   6  -9   -2.50   10.00
  -7  -6   9   -9.60   16.30
  -7   6   9    1.40   11.10
   7   6  -9   -3.30    6.70
   7   6  -9   -1.20    8.70
  -6  -6   9   12.20   17.10
  -6  -6   9    2.80   19.60
   6   6  -9   13.80   10.40
  -6   6   9   19.40    6.30
  -6   6   9   22.40   11.90
   6   6  -9   12.40   10.60
  -5  -6   9    8.00   18.70
  -5  -6   9    5.10   12.80
  -5   6   9    4.50    9.60
   5   6  -9   -3.10    8.10
   5   6  -9   -1.00    5.40
   5   6  -9    3.90    9.10
  -5   6   9   -4.60    5.30
  -4  -6   9  280.17   33.70
  -4   6   9  254.47   17.50
   4   6  -9  180.08   16.90
  -4   6   9  186.38   25.30
   4   6  -9  266.67   24.20
  -3  -6   9  211.38   16.40
  -3  -6   9  221.88   29.30
   3  -6  -9  208.78   14.40
  -3   6   9  240.38   16.00
   3   6  -9  230.48   17.60
  -3   6   9  218.88   22.50
   3   6  -9  255.47   24.70
   2  -6  -9   85.59    8.60
  -2  -6   9  112.69   21.10
  -2  -6   9   87.59   10.70
  -2   6   9   89.39    8.60
   2   6  -9  105.69   19.00
   2   6  -9   81.79   10.90
  -2   6   9  105.29   17.60
  -1  -6   9 1438.26   77.69
   1  -6  -9 1375.46   68.19
  -1  -6   9 1361.16   68.89
   1   6  -9 1379.86   69.79
  -1   6   9 1316.47   67.39
  -1   6   9 1377.36   74.79
   1   6  -9 1381.16   78.19
   0  -6  -9   21.40    5.90
   0  -6   9   13.80    4.60
   0   6  -9   13.70    4.90
   0   6   9   -0.90    7.10
   0   6   9   19.00    5.00
   0   6  -9   16.30   11.00
  -1  -6  -9 1358.36   65.19
  -1  -6  -9 1256.17   81.69
   1  -6   9 1260.87   63.79
   1   6   9 1276.37   67.29
  -1   6  -9 1281.77   75.09
  -1   6  -9 1298.47   64.69
   1   6   9 1293.57   63.59
   1   6   9 1129.19   69.09
  -2  -6  -9  666.23   35.90
  -2  -6  -9  628.34   56.39
   2   6   9  631.84   34.00
   2   6   9  582.44   43.40
   2   6   9  599.64   36.40
  -2   6  -9  600.94   34.20
  -2   6  -9  649.74   45.90
  -3  -6  -9  329.37   23.40
  -3  -6  -9  430.26   58.39
  -3   6  -9  357.26   21.60
  -3   6  -9  330.97   32.90
   3   6   9  378.66   24.70
   3   6   9  342.97   21.90
  -4  -6  -9  619.74   40.00
  -4  -6  -9  683.03   66.29
  -4  -6  -9  781.42   69.39
   4   6   9  753.72   40.50
   4   6   9  717.53   41.00
  -4   6  -9  725.83   51.39
  -4   6  -9  664.33   36.00
  -5  -6  -9   -7.60   26.10
  -5  -6  -9    3.00    6.90
  -5  -6  -9  -15.30   23.50
   5   6   9    0.60    4.60
   5   6   9   -4.60    7.60
  -5   6  -9    5.50   13.20
  -6  -6  -9  356.76   27.90
  -6  -6  -9  360.76   64.39
  -6  -6  -9  250.07   49.99
   6   6   9  409.86   27.10
   6   6   9  337.87   24.40
  -6   6  -9  325.27   40.90
  -7  -6  -9   51.19   41.90
  -7  -6  -9   59.19   13.20
  -7  -6  -9   58.99   37.60
  -7   6  -9   57.29   21.70
   7   6   9   61.89   14.50
  -8  -7   9  209.78   40.30
  -8   7   9  257.67   35.60
  -7  -7   9   12.60   19.10
   7   7  -9   -4.60   10.10
   7   7  -9   -9.80    7.90
  -7   7   9    9.30   13.10
  -6  -7   9  573.04   49.60
   6   7  -9  528.75   37.30
  -6   7   9  515.45   31.50
   6   7  -9  555.74   39.90
   6   7  -9  544.75   35.80
  -5  -7   9  140.09   27.10
  -5   7   9  122.29   14.60
   5   7  -9  118.19   20.80
  -5   7   9  102.79   20.50
   5   7  -9  108.79   17.80
  -4  -7   9  390.46   37.80
  -4   7   9  457.35   26.40
   4   7  -9  447.06   35.10
  -4   7   9  435.66   34.80
   4   7  -9  402.86   29.70
   4   7  -9  407.96   28.00
  -3  -7   9  782.72   52.89
  -3   7   9  791.82   50.99
   3   7  -9  790.22   44.30
  -3   7   9  802.72   41.70
   3   7  -9  848.52   52.19
   3   7  -9  739.63   41.50
   2  -7  -9   34.30    6.80
  -2  -7   9   21.10   14.10
   2   7  -9   31.60    7.80
   2   7  -9   30.20    6.50
  -2   7   9   29.80   12.40
   2   7  -9   13.90   11.00
  -2   7   9   34.50    6.20
  -1  -7   9  432.26   26.00
   1  -7  -9  423.66   25.60
  -1  -7   9  476.75   35.70
   1   7  -9  448.06   35.20
  -1   7   9  389.26   31.50
   1   7  -9  431.66   26.90
  -1   7   9  415.16   24.40
   0  -7  -9   85.69   11.30
   0  -7   9   90.39   11.40
   0   7  -9   84.59   11.60
   0   7   9   71.59   14.70
   0   7   9   86.99   10.60
   0   7  -9   60.49   16.90
  -1  -7  -9   77.79   24.40
  -1  -7  -9   72.59   12.20
   1   7   9   44.90   12.90
   1   7   9   56.19   12.30
  -1   7  -9   51.49    9.00
   1   7   9   56.09    8.50
  -1   7  -9   73.99   18.30
  -2  -7  -9    7.10    5.40
   2   7   9    3.70    7.40
   2   7   9   20.00    5.60
   2   7   9   18.60   12.80
  -2   7  -9   15.90    5.80
  -2   7  -9   23.20   13.50
  -3  -7  -9   23.80   24.90
  -3   7  -9   17.60   13.30
  -3   7  -9   16.10    6.00
   3   7   9   16.10    8.30
   3   7   9   19.70    5.80
  -4  -7  -9    8.50   25.70
  -4  -7  -9   33.20    9.00
  -4  -7  -9   14.50   25.90
  -4   7  -9   37.20    6.80
   4   7   9   29.80    6.90
  -4   7  -9   42.00   15.90
  -5  -7  -9   27.20   30.40
  -5  -7  -9    6.70    7.50
  -5  -7  -9  -12.20   26.90
   5   7   9   13.60    6.60
   5   7   9   -1.70    8.70
  -5   7  -9   -8.60   13.10
  -6  -7  -9  107.39   16.20
  -6  -7  -9   76.09   39.50
  -6  -7  -9   98.49   39.40
  -6   7  -9   81.49   22.60
  -8  -8   9  -14.90   22.50
  -8   8   9   12.30   17.20
  -7  -8   9    3.60   21.50
  -7   8   9   -0.50   13.10
   7   8  -9   -4.00    8.90
  -6  -8   9   30.20   23.50
   6   8  -9   35.70   12.70
  -6   8   9   42.10   17.40
  -6   8   9   29.20    8.80
   6   8  -9   39.10   11.30
   6   8  -9   40.40   16.10
  -5  -8   9    5.80   17.90
   5   8  -9    0.90    6.60
  -5   8   9   -2.40    6.40
   5   8  -9    7.10   12.40
  -5   8   9   -5.60   11.30
   5   8  -9    0.50    7.70
  -4  -8   9  188.68   33.30
   4   8  -9  227.88   29.60
   4   8  -9  228.48   33.60
  -4   8   9  255.07   33.30
   4   8  -9  196.18   33.10
   4   8  -9  226.78   18.40
  -4   8   9  232.38   17.50
  -3  -8   9  259.27   34.20
  -3   8   9  228.38   17.00
  -3   8   9  262.97   32.80
   3   8  -9  252.57   31.90
   3   8  -9  287.87   18.80
   3   8  -9  227.68   19.70
   3   8  -9  236.28   21.20
  -2  -8   9   63.19   19.80
   2  -8  -9   55.29    9.50
  -2   8   9   72.79   17.10
   2   8  -9   57.19    8.90
   2   8  -9   46.30    9.20
  -2   8   9   53.39    9.20
   2   8  -9   39.00   10.00
   2   8  -9   63.49   17.20
   1  -8  -9 1029.80   56.39
  -1  -8   9 1132.59   66.49
  -1   8   9  962.40   62.69
   1   8  -9 1117.69   67.59
   1   8  -9 1060.89   58.19
   1   8  -9 1116.69   57.59
  -1   8   9 1103.49   54.89
   0  -8  -9   18.20    6.70
   0  -8   9   28.70   16.20
   0   8  -9   10.70    6.80
   0   8  -9   23.60   15.30
   0   8   9   24.40    6.30
   0   8   9   11.10   10.20
   0   8  -9   25.70    7.90
  -1  -8  -9 1168.18   61.49
  -1  -8  -9 1214.78   78.79
   1   8   9 1178.18   64.69
   1   8   9  984.00   62.29
  -1   8  -9 1159.18   60.19
   1   8   9 1255.27   59.49
  -1   8  -9 1094.69   70.99
  -2  -8  -9  548.35   34.90
  -2  -8  -9  625.14   67.79
  -2   8  -9  620.14   46.50
  -2   8  -9  570.44   33.00
   2   8   9  574.04   37.20
  -2   8  -9  547.55   32.40
   2   8   9  516.15   40.50
   2   8   9  565.84   32.80
  -3  -8  -9  181.58   43.30
  -3  -8  -9  223.68   20.40
   3   8   9  237.68   21.40
  -3   8  -9  222.08   16.90
  -3   8  -9  230.58   17.20
   3   8   9  225.28   17.50
  -3   8  -9  282.07   37.80
  -4  -8  -9  552.94   72.29
  -4  -8  -9  495.05   35.90
  -4   8  -9  571.94   31.00
  -4   8  -9  527.45   46.60
  -4   8  -9  535.95   30.70
   4   8   9  624.64   37.00
   4   8   9  569.14   33.20
  -5  -8  -9  -11.10   36.10
  -5  -8  -9    4.20   28.40
  -5  -8  -9   -1.10    6.80
   5   8   9   -1.10    5.40
  -5   8  -9   -7.60   13.50
   5   8   9  -10.80    8.20
  -6  -8  -9  211.18   25.70
  -6  -8  -9  191.88   55.69
  -6  -8  -9  257.87   55.49
  -6   8  -9  192.98   33.30
  -7  -9   9    3.40   23.50
  -7   9   9    1.20   14.50
   7   9  -9    2.50    8.90
  -6  -9   9  369.66   50.39
   6   9  -9  412.86   28.10
  -6   9   9  295.47   39.50
   6   9  -9  387.66   31.30
  -6   9   9  343.37   25.50
   6   9  -9  296.77   37.50
  -5  -9   9  103.69   28.80
  -5   9   9  117.79   16.20
   5   9  -9   64.79   14.80
  -5   9   9   35.10   17.30
   5   9  -9   85.99   18.30
   5   9  -9   86.79   16.30
   5   9  -9   56.19   21.70
  -4  -9   9  257.17   46.70
  -4   9   9  315.37   20.90
   4   9  -9  283.37   23.70
   4   9  -9  281.67   25.30
   4   9  -9  292.77   22.00
   4   9  -9  284.37   35.00
  -4   9   9  271.67   35.50
  -3  -9   9  418.36   41.90
   3   9  -9  444.86   28.40
   3   9  -9  456.55   30.70
  -3   9   9  501.95   39.90
   3   9  -9  454.05   32.20
   3   9  -9  482.85   40.70
  -3   9   9  484.85   27.60
  -2  -9   9    9.00   15.50
   2   9  -9   11.40    8.30
  -2   9   9    7.30    4.40
   2   9  -9    7.10    6.80
   2   9  -9   11.30   14.30
   2   9  -9   13.80    7.20
  -1  -9   9  393.56   36.30
   1  -9  -9  334.67   25.10
   1   9  -9  396.16   37.20
   1   9  -9  354.46   27.20
  -1   9   9  413.66   24.30
   1   9  -9  362.66   43.80
   0  -9   9   38.90   17.40
   0  -9  -9   49.80   10.80
   0   9   9   45.60    8.40
   0   9   9   65.39   16.90
   0   9  -9   49.80   10.20
   0   9  -9   51.19   22.20
   0   9  -9   56.39   10.90
  -1  -9  -9   22.00    8.50
   1  -9   9   21.10   16.20
  -1   9  -9   21.90    7.60
  -1   9  -9   24.80    8.10
   1   9   9   11.90   10.60
  -1   9  -9   17.60   14.30
   1   9   9   21.10    6.20
  -2  -9  -9   37.90   27.80
  -2  -9  -9   31.30   10.60
  -2   9  -9   28.50    7.80
  -2   9  -9   33.30   16.60
   2   9   9   39.40    8.30
   2   9   9   24.50   11.20
  -2   9  -9   30.10    8.10
  -3  -9  -9   38.00   29.70
  -3  -9  -9   19.30    9.40
  -3   9  -9   17.50    6.30
   3   9   9   17.30    6.60
  -3   9  -9   34.20   17.70
  -3   9  -9   23.10    6.70
   3   9   9   29.00   10.90
  -4  -9  -9   14.00   28.90
   4   9   9   -4.50    8.40
  -4   9  -9   -1.80   14.30
   4   9   9   -0.90    5.00
  -4   9  -9   10.80    5.30
  -5  -9  -9    2.90   31.40
  -5  -9  -9    5.00   12.70
  -5   9  -9  -17.10   14.60
   5   9   9    1.00    9.00
  -6 -10   9   37.50   29.60
  -6  10   9   25.10   18.40
   6  10  -9   11.60   10.10
  -6  10   9   -0.60    8.30
  -5 -10   9    2.30   20.40
   5  10  -9    0.30    8.10
   5  10  -9   -2.00    8.30
   5  10  -9   -3.20   30.50
  -5  10   9    4.60   15.50
   5  10  -9    1.10    9.20
  -5  10   9   -4.30    6.60
  -4 -10   9  171.28   33.30
   4  10  -9  131.79   26.40
   4  10  -9   91.89   15.10
   4  10  -9  131.29   17.90
  -4  10   9  111.49   25.60
   4  10  -9  137.69   19.60
  -3 -10   9  142.49   30.60
  -3  10   9  129.19   12.70
   3  10  -9  137.19   18.00
   3  10  -9  101.59   24.30
   3  10  -9  109.29   15.80
   3  10  -9  133.69   16.20
  -3  10   9  173.48   29.40
  -2 -10   9  101.99   27.30
   2  10  -9   65.09   12.00
   2  10  -9   63.49   12.30
  -2  10   9   90.89   11.50
   2  10  -9  111.49   23.30
  -2  10   9   83.09   20.70
   2  10  -9   74.59   11.70
  -1 -10   9  605.84   47.30
   1  10  -9  487.65   34.10
   1  10  -9  536.35   32.70
  -1  10   9  566.94   31.80
  -1  10   9  505.35   41.60
   1  10  -9  521.55   45.30
   1  10  -9  551.64   34.30
   0 -10  -9    4.30    6.70
   0 -10   9   17.10   17.00
   0  10   9    2.90    4.50
   0  10  -9   -3.50   11.60
   0  10  -9    0.60    6.10
   0  10  -9    6.20    6.90
   0  10   9   -5.80   10.20
  -1 -10  -9  542.45   37.80
   1 -10   9  588.84   47.80
  -1  10  -9  614.34   35.90
   1  10   9  596.84   34.60
  -1  10  -9  582.74   35.60
  -1  10  -9  640.24   50.09
   1  10   9  559.74   41.20
   2 -10   9  231.38   33.70
  -2 -10  -9  262.27   48.60
  -2  10  -9  322.37   40.90
  -2  10  -9  305.77   35.80
   2  10   9  279.17   20.70
   2  10   9  250.77   26.30
  -3 -10  -9   95.19   38.80
  -3  10  -9   98.69   13.40
   3  10   9  127.19   15.20
  -3  10  -9  135.59   12.80
   3  10   9  105.29   18.50
  -3  10  -9  108.59   26.60
  -4 -10  -9  401.26   68.29
  -4  10  -9  340.77   20.90
  -4  10  -9  297.77   43.20
   4  10   9  332.67   28.90
  -4 -11   9  228.28   40.10
   4  11  -9  186.38   34.70
   4  11  -9  217.28   25.50
  -4  11   9  251.87   37.50
   4  11  -9  254.17   24.90
  -4  11   9  241.88   19.60
   4  11  -9  249.78   22.50
  -3 -11   9  159.78   33.60
  -3  11   9  256.37   35.20
   3  11  -9  191.48   23.00
   3  11  -9  298.57   42.20
  -3  11   9  214.38   19.40
   3  11  -9  172.38   20.90
   3  11  -9  181.68   19.20
  -2 -11   9   13.90   20.80
   2  11  -9   18.90   10.10
   2  11  -9    3.50    8.40
   2  11  -9   25.50   10.00
  -2  11   9   34.70    8.10
  -2  11   9   10.10   14.70
   2  11  -9    8.60   16.20
  -1  11   9  175.78   15.40
  -1  11   9  122.19   24.80
   1  11  -9  169.98   20.00
   1  11  -9  176.18   31.40
   1  11  -9  145.79   19.00
   1  11  -9  178.08   20.80
   0 -11   9   23.00   20.50
   0  11  -9   61.99   21.50
   0  11   9    6.70   12.40
   0  11  -9   25.40    9.30
   0  11   9   22.90    7.70
   0  11  -9   19.80    9.00
   1 -11   9   13.30   18.10
  -1  11  -9   13.10    8.60
  -1  11  -9   37.30   19.70
   1  11   9    6.60    6.20
  -1  11  -9    1.50    8.60
   1  11   9   25.00   13.90
   2 -11   9   13.40   23.30
  -2  11  -9   11.40    7.90
  -2  11  -9   18.10   17.90
   2  11   9   18.50   12.80
  -2  11  -9    3.60    6.20
   2  11   9   28.20    8.60
 -10   0  10   28.90   28.10
  -9   0  10  -23.90   22.10
  -8   0  10   39.20   19.90
  -8   0  10   13.10    5.80
  -7   0  10  -11.50   13.20
  -7   0  10   -3.60    3.80
  -6   0  10  142.19   23.50
   6   0 -10  151.68   17.70
  -6   0  10  135.29   11.90
   5   0 -10  241.68   18.40
  -5   0  10  288.67   23.00
  -5   0  10  246.28   17.30
   5   0 -10  264.37   23.00
   5   0 -10  234.68   34.80
   4   0 -10  282.97   37.70
  -4   0  10  230.58   20.60
  -4   0  10  201.58   15.10
   4   0 -10  219.08   17.70
   4   0 -10  201.08   15.80
  -3   0  10  780.32   59.19
   3   0 -10  791.02   58.39
  -3   0  10  782.72   45.40
   3   0 -10  853.61   46.10
  -3   0  10  886.71   47.70
  -3   0  10  813.02   45.60
   2   0 -10   90.19   10.60
   2   0 -10   94.49   11.90
   2   0 -10   76.39   21.00
  -2   0  10   93.09   12.60
  -2   0  10   97.89   12.20
  -2   0  10   64.79   21.60
   1   0 -10 3329.77  170.38
  -1   0  10 3294.77  153.88
   1   0 -10 3175.68  152.68
  -1   0  10 3078.29  152.48
   0   0  10 1690.23   82.79
   0   0  10 1554.74  100.69
   0   0 -10 1729.33  100.79
   0   0  10 1795.02   84.59
   0   0 -10 1683.93   82.89
   1   0  10 1068.19   53.39
   1   0  10 1003.00   71.79
   1   0  10 1037.90   79.99
  -1   0 -10  989.50   51.59
  -1   0 -10 1078.29   70.39
  -2   0 -10 2226.68  105.89
   2   0  10 2179.18  128.39
   2   0  10 2535.95  154.68
  -2   0 -10 2236.18  133.49
   2   0  10 2101.39  106.99
  -3   0 -10   38.90   18.20
   3   0  10   33.20    6.50
  -3   0 -10   42.40    6.90
   3   0  10   42.10   26.20
  -4   0 -10  729.83   37.10
  -4   0 -10  716.83   71.89
   4   0  10  678.83   37.90
  -4   0 -10  653.93   55.79
  -5   0 -10  155.38   47.60
  -5   0 -10  121.89   28.00
  -5   0 -10  163.48   12.70
  -6   0 -10  152.58   31.20
  -6   0 -10  137.89   13.00
  -6   0 -10  144.39   82.49
  -7   0 -10  122.89   14.50
  -7   0 -10  195.78   61.09
  -7   0 -10  136.19   27.80
   7   0  10  130.89   13.80
  -8   0 -10  -17.00   41.70
   8   0  10    1.30    8.60
  -8   0 -10   -1.80    6.50
 -10  -1  10  254.07   47.30
 -10   1  10  273.07   47.20
  -9  -1  10   -6.70   22.20
  -9   1  10   13.40   22.40
  -8  -1  10  497.85   46.60
  -8   1  10  550.64   46.80
  -8   1  10  498.25   29.10
  -7  -1  10   45.80   18.30
  -7  -1  10   53.49    8.90
  -7   1  10   57.99    9.10
   7   1 -10   53.59   10.40
  -7   1  10   70.59   20.10
  -6  -1  10  345.07   21.50
   6  -1 -10  286.67   22.10
  -6  -1  10  328.57   31.10
  -6   1  10  332.37   20.90
  -6   1  10  379.26   31.50
   6   1 -10  338.97   23.20
  -6   1  10  385.16   29.00
   5  -1 -10  961.10   66.39
   5  -1 -10 1022.60   54.09
  -5  -1  10  964.40   49.60
  -5  -1  10 1004.20   57.59
   5  -1 -10  992.30   50.59
  -5   1  10  876.21   54.09
  -5   1  10  934.51   55.09
  -5   1  10  937.61   49.50
   5   1 -10  870.61   58.89
   5   1 -10  941.91   50.89
  -4  -1  10   43.50    7.20
   4  -1 -10   54.59    9.20
   4  -1 -10   37.60   18.20
   4  -1 -10   38.80    9.40
  -4  -1  10   62.19   21.70
  -4  -1  10   59.69   13.90
   4   1 -10   52.39   10.20
   4   1 -10   60.49   10.50
   4   1 -10   46.80   16.70
  -4   1  10   32.40    9.30
  -4   1  10   68.19   12.70
  -4   1  10   74.39   10.70
   3  -1 -10 1159.98   56.39
  -3  -1  10 1075.69   57.99
   3  -1 -10 1140.79   58.29
  -3  -1  10 1193.58   74.49
  -3  -1  10 1167.28   61.19
   3  -1 -10 1146.59   72.99
   3   1 -10 1080.19   56.59
   3   1 -10 1068.29   56.89
  -3   1  10 1094.49   56.89
   3   1 -10  973.30   67.19
  -3   1  10 1017.80   58.09
  -3   1  10 1103.09   58.89
  -2  -1  10  105.29   10.40
   2  -1 -10  103.19    9.70
  -2  -1  10   99.89   10.80
   2  -1 -10  108.39   25.90
   2  -1 -10  111.89   13.60
  -2  -1  10   89.99   25.10
  -2   1  10  137.09   11.70
  -2   1  10  144.39   16.10
   2   1 -10  102.79   10.20
   2   1 -10  116.99   10.70
   2   1 -10  129.39   24.50
   1  -1 -10  343.27   42.80
   1  -1 -10  250.37   15.90
   1  -1 -10  249.28   17.70
  -1  -1  10  241.88   17.20
  -1  -1  10  312.87   46.00
  -1  -1  10  218.08   15.70
   1   1 -10  251.97   16.70
  -1   1  10  248.98   17.20
  -1   1  10  231.88   17.10
   1   1 -10  244.68   16.00
   1   1 -10  337.47   39.30
   0  -1  10    7.60    4.50
   0  -1  10    8.10   16.10
   0  -1 -10    8.20    3.30
   0  -1 -10   16.50    4.90
   0  -1 -10   15.90   15.70
   0   1 -10    4.40    3.50
   0   1  10    5.50    4.50
   0   1  10   11.90    4.80
   0   1 -10    3.50   12.20
   0   1  10    3.20   15.90
   0   1  10    1.90   18.60
  -1  -1 -10  101.89    8.50
   1  -1  10   91.39   31.40
  -1  -1 -10   85.09   24.30
   1  -1  10  104.99   27.40
   1  -1  10  100.49   11.40
  -1  -1 -10   83.19    8.30
   1   1  10  101.09    9.40
  -1   1 -10  105.39   22.60
  -1   1 -10  100.49    8.90
   1   1  10  103.09   27.10
   1   1  10  105.09   29.70
   1   1  10   99.69    9.80
  -2  -1 -10   66.09    7.80
   2  -1  10   75.39   10.30
  -2  -1 -10   71.29    7.40
   2  -1  10   79.09   26.90
  -2  -1 -10   63.89   36.90
   2   1  10   42.60   22.00
   2   1  10   85.09   28.20
   2   1  10   89.29   10.00
   2   1  10   57.69    7.90
  -2   1 -10   66.39    8.20
  -2   1 -10   66.29   25.90
  -3  -1 -10   51.89    7.30
  -3  -1 -10   55.19   27.30
  -3  -1 -10   28.70   17.70
   3  -1  10   67.29   10.10
   3   1  10   28.50    5.90
  -3   1 -10   41.00    7.00
   3   1  10   41.20    7.20
  -3   1 -10   28.60   15.80
   3   1  10   49.50   24.90
   4  -1  10  275.17   19.40
  -4  -1 -10  340.67   57.99
  -4  -1 -10  340.87   19.00
  -4  -1 -10  354.66   47.30
  -4   1 -10  218.78   33.20
  -4   1 -10  268.07   18.10
   4   1  10  265.97   17.60
   4   1  10  287.17   19.40
  -5  -1 -10   68.69    9.50
  -5  -1 -10   64.39   24.20
  -5  -1 -10   67.89   34.50
  -5   1 -10   64.79    8.60
  -5   1 -10   70.29   21.90
   5   1  10   44.70    9.90
   5   1  10   65.89   11.40
  -5   1 -10   23.50   28.30
  -6  -1 -10  107.19   30.90
  -6  -1 -10   99.09   53.59
  -6  -1 -10  156.98   15.00
  -6   1 -10  185.08   30.70
  -6   1 -10  178.38   69.29
   6   1  10  204.48   15.40
  -6   1 -10  162.68   13.70
  -7  -1 -10   95.99   27.60
  -7  -1 -10  140.29   16.20
  -7  -1 -10   91.29   45.70
  -7   1 -10  123.99   19.40
   7   1  10  163.58   15.40
  -7   1 -10  101.29   51.09
  -7   1 -10  101.59   24.70
   8  -1  10   25.00    9.10
  -8  -1 -10   -0.40   44.60
  -8  -1 -10   16.90    9.10
   8   1  10   22.10    9.50
  -8   1 -10   28.70   50.19
  -8   1 -10   12.60   18.10
  -8   1 -10    8.70    7.40
 -10  -2  10   29.10   28.40
 -10   2  10   43.70   32.40
  -9  -2  10  -16.60   20.60
  -9   2  10   11.50   22.10
  -8  -2  10   55.19   24.10
  -8   2  10   63.29   23.40
  -8   2  10   50.89    8.10
  -7  -2  10   19.20    6.90
  -7  -2  10   -3.30   13.50
  -7   2  10   33.20   16.90
  -7   2  10   14.20    4.80
   7   2 -10    8.20    7.50
  -7   2  10   19.30   11.40
   6  -2 -10  184.18   23.00
  -6  -2  10  251.67   17.80
  -6  -2  10  276.77   33.10
   6  -2 -10  187.38   34.70
  -6   2  10  257.87   24.10
  -6   2  10  252.47   17.00
   6   2 -10  250.57   19.50
  -6   2  10  291.07   27.50
  -5  -2  10  478.75   36.30
  -5  -2  10  443.36   45.20
  -5  -2  10  460.15   28.10
   5  -2 -10  562.24   48.60
   5  -2 -10  424.76   28.20
  -5   2  10  517.55   33.90
  -5   2  10  512.65   28.50
  -5   2  10  531.05   34.10
   5   2 -10  488.85   29.70
   5   2 -10  459.15   35.40
   4  -2 -10  442.06   49.60
  -4  -2  10  334.57   28.50
  -4  -2  10  360.96   44.60
   4  -2 -10  360.66   22.30
  -4   2  10  360.96   26.50
  -4   2  10  386.36   26.50
   4   2 -10  359.66   31.20
   4   2 -10  384.36   24.00
  -4   2  10  369.26   23.40
   4   2 -10  380.96   25.30
  -3  -2  10 1484.85   78.59
   3  -2 -10 1446.26   69.39
  -3  -2  10 1469.35   87.69
   3  -2 -10 1403.16   72.89
   3  -2 -10 1556.24   89.79
  -3  -2  10 1361.06   69.99
  -3   2  10 1398.56   71.59
   3   2 -10 1378.16   79.89
  -3   2  10 1277.07   72.59
   3   2 -10 1364.36   70.79
  -3   2  10 1405.66   70.89
   3   2 -10 1373.36   70.59
   2  -2 -10   49.50   20.20
  -2  -2  10   26.40   10.20
  -2  -2  10   18.60    4.90
   2  -2 -10   36.10    9.20
   2  -2 -10   20.10    7.50
  -2   2  10   34.30    7.20
   2   2 -10   22.40    5.80
   2   2 -10   45.70   15.20
  -2   2  10   23.30    7.40
  -1  -2  10 2829.32  133.89
   1  -2 -10 2922.01  134.69
  -1  -2  10 2608.44  149.19
   1  -2 -10 2604.64  131.89
   1  -2 -10 2799.42  151.58
  -1   2  10 2695.63  134.79
  -1   2  10 2800.22  133.39
   1   2 -10 2840.32  133.89
   1   2 -10 2929.21  146.59
   0  -2 -10 2044.90  112.29
   0  -2  10 1887.01  109.49
   0  -2  10 2008.90   92.99
   0  -2 -10 1873.61   91.49
   0   2  10 1746.13  110.39
   0   2  10 1838.22   91.39
   0   2  10 1818.62   92.99
   0   2 -10 1825.32   91.89
   0   2 -10 1939.41  105.39
  -1  -2 -10  710.23   36.50
   1  -2  10  677.83   38.20
  -1  -2 -10  628.44   36.40
  -1  -2 -10  721.63   61.89
   1  -2  10  674.33   55.39
   1   2  10  708.33   81.09
  -1   2 -10  748.33   37.60
   1   2  10  723.33   37.10
   1   2  10  720.33   38.30
  -2  -2 -10 2837.42  138.89
  -2  -2 -10 2927.21  139.19
   2  -2  10 3039.20  141.09
  -2  -2 -10 2901.51  162.78
   2   2  10 3047.50  139.69
  -2   2 -10 2835.02  139.09
   2   2  10 2872.31  139.29
  -2   2 -10 2933.71  154.38
   2   2  10 2999.50  160.48
  -3  -2 -10   -1.60   18.60
  -3  -2 -10   -2.40   15.10
  -3  -2 -10   -1.30    2.50
   3  -2  10   -1.40    3.90
  -3   2 -10    4.00    3.10
  -3   2 -10   16.10   12.60
   3   2  10    2.80    3.40
   3   2  10   -1.80    4.30
  -4  -2 -10  882.21   69.79
  -4  -2 -10  899.71   46.50
  -4  -2 -10  806.42   77.49
  -4   2 -10  876.01   44.90
  -4   2 -10  880.41   61.39
   4   2  10  907.51   46.40
  -5  -2 -10  217.58   53.59
  -5  -2 -10  228.08   42.60
  -5  -2 -10  215.48   16.80
  -5   2 -10  234.98   15.30
   5   2  10  231.18   16.70
  -5   2 -10  235.98   33.80
   5   2  10  226.88   16.90
  -6  -2 -10  163.58   15.70
  -6  -2 -10  189.68   55.99
  -6  -2 -10  114.59   31.90
   6   2  10  179.68   15.60
  -6   2 -10  130.29   26.50
  -6   2 -10  187.08   13.50
  -7  -2 -10  199.08   19.30
  -7  -2 -10  281.17   64.79
  -7  -2 -10  179.18   37.90
   7   2  10  223.08   18.80
  -7   2 -10  170.98   29.60
  -7   2 -10  213.78   16.30
  -8  -2 -10   37.20   53.09
  -8   2 -10    3.00    6.30
   8   2  10    7.20    8.70
  -8   2 -10    8.60   17.10
 -10  -3  10  227.28   46.00
 -10   3  10  191.78   43.60
  -9  -3  10   -8.40   19.60
  -9   3  10   -3.00   22.40
  -8  -3  10  502.25   49.00
  -8   3  10  568.04   42.10
   8   3 -10  501.55   36.80
  -8   3  10  512.55   28.80
   8   3 -10  482.85   36.40
  -8   3  10  612.44   49.00
  -7  -3  10   26.50   19.20
   7  -3 -10   13.30   23.80
  -7   3  10   14.70   11.00
  -7   3  10   27.10   16.80
   7   3 -10   25.30    8.20
  -7   3  10   29.90    6.70
  -6  -3  10  394.46   24.70
   6  -3 -10  378.46   29.80
   6  -3 -10  389.36   48.30
  -6  -3  10  351.36   34.90
  -6   3  10  397.76   32.10
  -6   3  10  421.16   24.00
   6   3 -10  360.56   26.10
  -6   3  10  392.56   31.30
  -5  -3  10  474.25   36.20
  -5  -3  10  458.55   27.30
   5  -3 -10  428.86   25.60
  -5  -3  10  457.45   51.19
   5   3 -10  366.16   31.50
  -5   3  10  417.96   31.70
  -5   3  10  500.95   27.60
   5   3 -10  492.65   29.10
  -5   3  10  465.55   31.50
  -4  -3  10   11.90    4.10
  -4  -3  10   13.70   16.30
  -4  -3  10   10.30    9.90
   4  -3 -10   14.00    4.30
   4   3 -10   15.00    5.70
  -4   3  10    8.60    5.30
   4   3 -10   15.20    7.60
  -4   3  10   18.20    8.40
   4   3 -10   14.70   10.20
  -4   3  10    3.60    6.20
  -3  -3  10  692.63   36.10
   3  -3 -10  673.63   34.40
  -3  -3  10  696.23   42.60
  -3  -3  10  654.33   51.89
   3   3 -10  664.03   37.40
  -3   3  10  630.64   36.30
  -3   3  10  619.34   36.20
  -3   3  10  584.44   38.70
   3   3 -10  664.63   37.10
   3   3 -10  620.54   43.30
   2  -3 -10  240.08   36.70
  -2  -3  10  187.68   25.60
   2  -3 -10  165.98   11.60
  -2  -3  10  166.68   13.00
  -2  -3  10  173.88   29.20
   2  -3 -10  178.28   16.30
   2   3 -10  149.29   13.00
  -2   3  10  151.88   12.80
   2   3 -10  224.18   26.90
  -2   3  10  154.98   15.60
   2   3 -10  153.18   12.70
  -1  -3  10   51.29    7.80
   1  -3 -10   64.39   10.20
   1  -3 -10   46.60    6.30
  -1  -3  10   68.69   20.70
   1   3 -10   63.39   16.50
  -1   3  10   50.89   10.50
  -1   3  10   64.39   22.50
  -1   3  10   59.49    8.70
   1   3 -10   65.49   11.50
   0  -3 -10  174.98   12.20
   0  -3  10  194.68   33.60
   0  -3 -10  176.68   13.90
   0  -3  10  193.28   13.90
   0  -3 -10  221.88   37.30
   0   3  10  240.48   34.00
   0   3  10  175.88   12.60
   0   3 -10  259.27   32.10
   0   3 -10  155.98   13.30
   0   3  10  150.28   15.10
  -1  -3 -10  132.29   30.10
   1  -3  10  131.99   11.00
  -1  -3 -10  101.49    8.60
  -1  -3 -10   97.09   10.00
   1   3  10   83.39    8.40
  -1   3 -10   79.79   18.00
  -1   3 -10   82.09   10.00
   1   3  10  107.79   12.90
  -2  -3 -10   87.69   28.00
  -2  -3 -10   56.19    7.40
   2  -3  10   57.39   10.50
  -2  -3 -10   56.89    8.90
   2   3  10   83.59    9.60
  -2   3 -10   38.50   15.60
   2   3  10   62.89    9.20
  -2   3 -10   79.29    9.50
   2   3  10   76.59   23.60
  -3  -3 -10   52.29   21.60
   3  -3  10   50.99    9.00
  -3  -3 -10   54.99    7.90
  -3  -3 -10   91.79   32.50
   3   3  10   40.70    6.90
  -3   3 -10   50.79   16.90
   3   3  10   49.70    8.50
  -3   3 -10   72.19    9.20
  -4  -3 -10  300.97   48.20
  -4  -3 -10  337.87   21.40
  -4  -3 -10  368.46   59.09
  -4   3 -10  310.77   19.10
  -4   3 -10  343.07   40.10
   4   3  10  308.27   20.40
   4   3  10  348.17   21.40
  -5  -3 -10   24.90   29.10
  -5  -3 -10   52.69    9.40
  -5  -3 -10   26.90   24.00
  -5   3 -10   27.20   15.70
   5   3  10   37.90   10.10
   5   3  10   50.49   10.30
  -5   3 -10   37.20    6.60
  -6  -3 -10  187.78   53.19
  -6  -3 -10  259.37   47.40
  -6  -3 -10  221.78   19.40
  -6   3 -10  239.98   15.60
  -6   3 -10  224.18   32.60
   6   3  10  242.08   19.20
  -7  -3 -10  188.98   54.09
  -7  -3 -10  205.98   19.80
  -7  -3 -10  120.89   38.30
  -7   3 -10  180.28   14.60
   7   3  10  210.28   19.00
  -7   3 -10  142.19   28.10
  -8  -3 -10   18.60   11.30
  -8  -3 -10   -9.30   40.00
  -8   3 -10   17.50   18.20
   8   3  10   13.40   10.10
 -10  -4  10  -13.70   26.30
 -10   4  10   24.20   31.60
  -9  -4  10   -5.30   21.40
  -9   4  10    4.70   23.90
  -8  -4  10   30.10   21.90
  -8   4  10   36.70   21.00
   8   4 -10   21.80    9.70
  -8   4  10   41.80   16.10
   8   4 -10   35.60   12.60
  -7  -4  10   21.00   18.10
   7  -4 -10   24.30   13.00
  -7   4  10   15.60    5.50
  -7   4  10   17.40   12.50
  -7   4  10   19.10   15.60
   7   4 -10   31.50    9.80
  -6  -4  10  237.78   18.40
  -6  -4  10  221.98   31.80
   6   4 -10  251.47   20.60
  -6   4  10  212.28   28.60
  -6   4  10  227.68   26.40
  -6   4  10  274.37   17.90
  -5  -4  10  302.97   35.20
  -5  -4  10  304.07   26.90
   5   4 -10  256.87   24.10
  -5   4  10  211.98   23.10
  -5   4  10  287.97   19.70
   5   4 -10  268.17   20.50
  -4  -4  10  233.98   17.80
  -4  -4  10  269.17   36.90
  -4  -4  10  265.87   30.30
   4  -4 -10  281.47   16.30
  -4   4  10  228.48   22.20
   4   4 -10  241.98   24.00
  -4   4  10  250.67   18.70
   4   4 -10  258.07   19.10
  -3  -4  10  949.21   64.59
  -3  -4  10  978.50   49.90
  -3  -4  10  945.81   56.79
   3  -4 -10  942.91   47.60
  -3   4  10  981.10   50.09
  -3   4  10  934.01   54.09
   3   4 -10  944.41   57.19
   3   4 -10  881.91   52.49
  -2  -4  10   79.79   21.50
   2  -4 -10   80.29    7.60
  -2  -4  10  109.89   12.90
  -2  -4  10   77.09   16.90
  -2   4  10   98.79   11.00
   2   4 -10   59.69   19.10
  -2   4  10   79.29   14.50
   2   4 -10   73.09   10.30
   2   4 -10   72.59   10.80
   1  -4 -10 1979.50   96.09
  -1  -4  10 1994.70   97.59
   1  -4 -10 2012.60  108.79
   1   4 -10 2132.89  108.09
  -1   4  10 2003.00   96.59
  -1   4  10 1903.21  106.59
  -1   4  10 2007.00  101.49
   1   4 -10 1963.10   98.09
   0  -4  10  996.50   50.79
   0  -4 -10  957.00   51.59
   0  -4 -10  958.30   49.50
   0   4  10  989.20   49.60
   0   4  10  958.30   53.49
   0   4 -10  951.60   50.89
   0   4  10 1084.29   62.19
   0   4 -10  959.80   60.39
   1  -4  10  417.36   25.20
  -1  -4 -10  427.06   52.29
  -1   4 -10  436.46   25.60
  -1   4 -10  419.26   35.30
   1   4  10  420.86   27.10
   1   4  10  410.56   40.20
   1   4  10  433.76   24.40
  -2  -4 -10 1463.65   72.99
  -2  -4 -10 1567.84   98.09
   2  -4  10 1483.85   73.29
   2   4  10 1458.05   73.89
  -2   4 -10 1435.66   72.79
  -2   4 -10 1506.75   85.89
   2   4  10 1483.25   87.69
   2   4  10 1433.36   72.39
  -3  -4 -10   34.00   25.80
  -3  -4 -10   46.20   24.30
  -3  -4 -10   19.10    5.60
  -3   4 -10   22.90   13.10
   3   4  10   12.80    6.90
   3   4  10   35.90    7.20
  -3   4 -10   20.50    5.30
  -4  -4 -10  726.33   40.60
  -4  -4 -10  792.22   67.89
  -4  -4 -10  643.04   83.69
  -4   4 -10  707.13   52.39
   4   4  10  708.13   39.30
   4   4  10  754.02   40.20
  -5  -4 -10  203.08   50.49
  -5  -4 -10  187.28   41.50
  -5  -4 -10  189.98   16.20
  -5   4 -10  157.58   28.00
  -5   4 -10  169.88   12.40
   5   4  10  161.48   14.50
   5   4  10  189.38   17.00
  -6  -4 -10  125.49   49.60
  -6  -4 -10  133.99   39.40
  -6  -4 -10   94.49   17.00
  -6   4 -10   87.59   22.50
   6   4  10  124.19   15.30
   6   4  10   89.99   13.20
  -7  -4 -10  156.68   55.99
  -7  -4 -10  169.88   19.50
  -7  -4 -10  101.59   37.60
  -7   4 -10  144.79   27.90
   7   4  10  167.28   20.10
  -9  -5  10   25.00   25.70
  -9   5  10    3.00   26.00
  -9   5  10   -1.80   14.00
  -8  -5  10  306.17   44.20
  -8   5  10  440.56   38.10
  -8   5  10  394.36   53.89
  -8   5  10  393.56   22.50
   8   5 -10  395.36   49.40
   7  -5 -10   48.30   14.20
  -7  -5  10   62.79   23.90
  -7   5  10   49.90   22.70
   7   5 -10   24.50    9.30
   7   5 -10   36.30   11.70
  -7   5  10   39.80    7.50
  -6  -5  10  362.86   36.60
   6   5 -10  346.87   26.20
  -6   5  10  376.96   32.30
   6   5 -10  384.26   29.40
  -6   5  10  365.26   23.40
  -5  -5  10  351.76   43.60
  -5  -5  10  307.57   22.60
  -5  -5  10  343.97   33.80
   5   5 -10  345.27   24.60
   5   5 -10  360.86   29.30
  -5   5  10  361.06   30.00
  -5   5  10  366.26   23.90
  -4  -5  10   11.10   18.10
   4  -5 -10   10.20    4.00
  -4  -5  10   11.80    5.70
  -4  -5  10   10.20   10.90
   4   5 -10    6.00    9.20
  -4   5  10   -0.60    7.10
   3  -5 -10  673.93   37.80
  -3  -5  10  760.82   48.90
  -3  -5  10  741.13   40.50
  -3   5  10  776.72   40.30
  -3   5  10  698.73   45.30
   3   5 -10  759.72   41.60
   3   5 -10  793.52   48.50
  -2  -5  10   73.99    9.70
  -2  -5  10   54.29   14.90
   2  -5 -10   83.59    9.70
  -2   5  10   95.49   15.80
   2   5 -10   81.39   10.50
   2   5 -10   85.69   17.40
  -2   5  10   81.89   10.10
   2   5 -10   84.19   11.60
  -1  -5  10   16.30    5.30
   1  -5 -10   26.60    5.60
   1   5 -10    9.90   10.30
   1   5 -10   24.90    6.60
  -1   5  10   20.10    4.90
  -1   5  10   36.80   11.20
   0  -5 -10  105.69   11.90
   0  -5  10   91.19   11.90
   0   5 -10  116.09   13.70
   0   5  10   87.89   11.50
   0   5 -10   81.39   18.20
   0   5  10  108.59   16.30
   0   5  10  115.19   19.10
  -1  -5 -10   70.59   23.50
  -1  -5 -10   55.19    7.70
   1  -5  10   52.39    7.90
   1   5  10   48.10    7.60
   1   5  10   46.20   15.80
  -1   5 -10   40.90    8.30
   1   5  10   45.50   10.20
  -1   5 -10   30.50   12.90
  -2  -5 -10    4.90   18.70
  -2  -5 -10   12.60   19.70
  -2  -5 -10   10.40    4.80
  -2   5 -10   15.70   12.10
   2   5  10    5.50    5.80
   2   5  10    2.00   13.60
  -2   5 -10   13.00    5.10
   2   5  10   16.30    5.00
  -3  -5 -10   27.10    6.70
  -3  -5 -10   49.30   27.00
  -3  -5 -10   38.50   28.40
   3   5  10   21.60    8.20
  -3   5 -10   24.10   14.40
   3   5  10   26.50    6.10
  -3   5 -10   23.30    6.10
  -4  -5 -10  188.18   16.80
  -4  -5 -10  202.38   45.90
  -4  -5 -10  171.68   40.60
  -4   5 -10  191.58   29.70
   4   5  10  225.68   18.10
   4   5  10  227.28   16.20
  -4   5 -10  197.08   14.00
  -5  -5 -10   57.19   31.40
  -5  -5 -10   19.20   31.50
  -5  -5 -10   12.80    7.90
   5   5  10   -0.50    8.60
  -5   5 -10   -7.50   11.60
  -5   5 -10   11.80    4.50
   5   5  10   16.40    6.00
  -6  -5 -10  123.29   17.60
  -6  -5 -10  239.78   58.19
  -6  -5 -10  186.58   44.40
   6   5  10  163.28   15.80
  -6   5 -10  187.38   31.40
  -7  -5 -10   99.39   49.40
  -7  -5 -10  120.69   18.70
  -7  -5 -10   95.69   40.80
  -7   5 -10   98.29   36.90
   7   5  10  109.69   16.60
  -9  -6  10    6.50   24.90
  -9   6  10  -11.70   13.60
  -8  -6  10   15.60   21.50
   8   6 -10   14.00   12.40
   8   6 -10   16.90   11.80
  -8   6  10   30.50   16.90
  -7  -6  10   18.50   20.20
  -7   6  10    1.50   12.10
   7   6 -10    3.30   10.20
   7   6 -10    8.00    8.90
  -7   6  10   -3.10    5.60
  -6  -6  10   70.79   28.40
  -6  -6  10   79.49   34.20
  -6   6  10  112.09   22.90
  -6   6  10  129.99   14.90
   6   6 -10  113.89   16.90
   6   6 -10   98.09   17.40
   6   6 -10  127.39   20.30
  -5  -6  10  164.18   28.80
  -5   6  10  157.08   25.30
  -5   6  10  222.28   18.10
   5   6 -10  176.28   23.80
   5   6 -10  201.08   18.30
  -4  -6  10  131.19   13.00
  -4  -6  10  148.29   26.30
   4   6 -10  116.99   20.90
  -4   6  10  142.19   13.70
   4   6 -10  116.39   14.80
  -4   6  10  105.59   20.00
   3  -6 -10  910.01   47.60
  -3  -6  10 1014.00   60.29
  -3  -6  10  922.31   49.90
  -3   6  10  960.50   49.10
   3   6 -10  873.21   50.69
  -3   6  10  938.71   56.49
   3   6 -10  972.80   58.59
  -2  -6  10   68.09   17.70
   2  -6 -10   95.99   10.80
  -2  -6  10   78.19   11.10
   2   6 -10   72.09   10.50
  -2   6  10   75.79   16.30
   2   6 -10   88.99   18.30
  -2   6  10   77.99    9.80
  -1  -6  10 1298.17   67.69
   1  -6 -10 1327.67   66.89
  -1  -6  10 1412.76   77.59
  -1   6  10 1333.97   66.49
   1   6 -10 1302.07   77.19
   1   6 -10 1364.06   68.89
  -1   6  10 1340.87   73.69
   0  -6 -10  781.62   41.80
   0  -6  10  804.32   42.10
   0   6 -10  788.92   52.19
   0   6  10  770.72   41.00
   0   6 -10  756.22   42.80
   0   6  10  796.32   47.00
  -1  -6 -10  477.75   55.19
   1  -6  10  436.66   26.00
  -1  -6 -10  463.75   26.90
  -1   6 -10  436.36   36.60
   1   6  10  426.16   25.40
   1   6  10  406.26   34.10
  -1   6 -10  457.75   27.80
   1   6  10  424.46   29.80
  -2  -6 -10 1290.97   67.19
  -2  -6 -10 1306.07   89.19
  -2   6 -10 1211.28   63.49
   2   6  10 1266.27   66.19
  -2   6 -10 1276.17   76.29
   2   6  10 1227.88   63.09
   2   6  10 1204.18   74.49
  -3  -6 -10    1.50   20.40
  -3  -6 -10    0.60    4.20
  -3  -6 -10    9.90   24.10
   3   6  10    7.30    4.90
   3   6  10   -3.20    6.50
  -3   6 -10   -3.60   10.80
  -3   6 -10   11.90    5.20
  -4  -6 -10  639.44   79.29
  -4  -6 -10  487.65   32.10
  -4  -6 -10  414.96   61.49
  -4   6 -10  491.25   27.80
  -4   6 -10  521.55   44.20
   4   6  10  490.45   29.90
   4   6  10  547.35   32.60
  -5  -6 -10   95.89   15.10
  -5  -6 -10  109.79   39.10
  -5  -6 -10  148.19   45.40
   5   6  10  139.09   28.20
  -5   6 -10   90.49   23.30
   5   6  10  124.59   14.40
  -6  -6 -10   44.80   35.10
  -6  -6 -10   59.99   13.30
  -6  -6 -10  114.59   51.69
   6   6  10   58.19   19.40
   6   6  10   87.19   14.20
  -6   6 -10   50.49   21.20
  -7  -6 -10   70.49   15.90
  -7  -6 -10   82.89   50.39
  -7  -6 -10   65.39   40.00
   7   6  10   81.19   15.70
  -7   6 -10   65.09   23.30
  -8  -7  10  202.78   39.50
  -8   7  10  197.08   31.20
  -7  -7  10   39.00   22.40
  -7   7  10   76.19   21.20
   7   7 -10   69.79   16.30
  -7   7  10   47.10    8.50
   7   7 -10   38.60   14.00
  -6  -7  10  189.48   33.10
   6   7 -10  196.68   23.80
   6   7 -10  146.09   20.80
  -6   7  10  181.58   28.10
   6   7 -10  210.28   26.50
  -6   7  10  213.78   18.00
  -5  -7  10  386.66   39.20
   5   7 -10  383.66   33.60
   5   7 -10  386.36   28.90
  -5   7  10  290.27   31.50
  -5   7  10  381.36   25.70
  -4  -7  10   17.40   14.90
   4   7 -10   56.69   16.40
   4   7 -10   34.10    8.60
  -4   7  10   43.80   15.40
  -4   7  10   55.09   10.10
   4   7 -10   28.80   10.30
  -3  -7  10  531.25   40.60
   3   7 -10  504.55   37.90
  -3   7  10  421.66   35.30
  -3   7  10  476.05   27.60
   3   7 -10  431.06   29.60
   2  -7 -10   23.40    6.10
  -2  -7  10   35.00    8.40
  -2  -7  10   27.30   14.80
  -2   7  10   32.20    6.70
   2   7 -10   -4.90    8.60
   2   7 -10   21.80    6.10
  -2   7  10    9.00   10.20
   2   7 -10   10.00    6.80
   1  -7 -10   55.09    9.40
  -1  -7  10   53.79    8.80
  -1  -7  10   64.39   18.40
   1   7 -10   41.20    9.10
   1   7 -10   52.69   16.30
  -1   7  10   30.90   12.10
  -1   7  10   50.59    7.50
   0  -7  10   26.60    6.50
   0  -7 -10   34.70    7.80
   0   7  10   26.30   10.20
   0   7 -10   31.80   14.50
   0   7 -10   30.10    8.80
   0   7  10   27.40    6.20
  -1  -7 -10    6.40   18.30
  -1   7 -10   -0.90    9.70
   1   7  10    0.90    3.50
  -1   7 -10    5.40    4.60
   1   7  10    6.20    8.10
   1   7  10    8.50   11.60
  -2  -7 -10   59.99   28.70
  -2  -7 -10   71.29   11.20
   2   7  10   39.10   11.00
  -2   7 -10   45.10   15.50
   2   7  10   50.99    8.80
  -2   7 -10   53.89    8.90
  -3  -7 -10   27.20   28.40
  -3  -7 -10    1.80    4.00
  -3   7 -10   14.90    5.70
   3   7  10    4.50    7.70
   3   7  10    2.80    4.50
  -3   7 -10   16.40   14.30
  -4  -7 -10  237.28   49.50
  -4  -7 -10  216.98   20.40
  -4  -7 -10  185.58   49.50
   4   7  10  213.48   20.40
  -4   7 -10  252.37   22.00
  -4   7 -10  211.28   35.20
   4   7  10  204.28   17.30
  -5  -7 -10   53.29   67.39
  -5  -7 -10   65.49   37.10
  -5  -7 -10   10.60    8.00
   5   7  10   17.70    7.50
  -5   7 -10    1.60   15.40
   5   7  10    1.10    9.60
  -6  -7 -10   87.59   41.10
  -6  -7 -10   92.79   16.70
  -6  -7 -10  109.29   43.90
   6   7  10   98.29   16.40
  -6   7 -10   80.39   24.80
  -8  -8  10   20.40   25.80
  -8   8  10   35.60   20.30
  -7  -8  10  -18.50   20.20
  -7   8  10   23.10   16.70
   7   8 -10    5.60   14.20
  -6  -8  10   59.09   25.10
  -6   8  10   61.59   18.80
  -6   8  10   80.99   13.20
   6   8 -10  113.19   18.00
   6   8 -10   75.89   15.10
   6   8 -10  112.19   22.50
  -5  -8  10  120.39   29.20
   5   8 -10  146.29   19.50
  -5   8  10  113.29   15.70
   5   8 -10  166.68   26.50
  -5   8  10  140.49   26.50
   5   8 -10  119.29   19.00
  -4  -8  10  119.59   27.40
   4   8 -10   94.39   13.20
  -4   8  10  109.89   13.90
   4   8 -10  108.69   16.50
   4   8 -10  112.69   21.60
   4   8 -10  110.69   17.10
  -3  -8  10  776.02   56.09
  -3   8  10  795.32   52.89
   3   8 -10  745.53   46.40
  -3   8  10  769.32   42.20
   3   8 -10  802.02   42.40
   3   8 -10  844.12   54.69
   3   8 -10  745.13   44.80
   2  -8 -10   57.09    9.70
  -2  -8  10   99.99   22.80
  -2   8  10   59.99   14.60
   2   8 -10   80.39   19.20
  -2   8  10   64.79   17.70
   2   8 -10   82.09   13.00
   2   8 -10   58.19   12.00
   2   8 -10   60.49    9.40
   1  -8 -10 1209.78   62.29
  -1  -8  10 1280.87   73.69
   1   8 -10 1212.08   63.39
  -1   8  10 1183.18   60.49
  -1   8  10 1137.39   69.19
   1   8 -10 1116.79   72.39
   0  -8 -10  582.84   36.70
   0  -8  10  657.63   48.50
   0   8 -10  571.04   46.50
   0   8  10  621.64   42.70
   0   8 -10  689.53   37.90
   0   8  10  664.43   35.60
  -1  -8 -10  527.65   58.19
  -1  -8 -10  433.56   27.70
   1   8  10  307.77   32.20
   1   8  10  424.46   25.40
  -1   8 -10  401.26   26.60
  -1   8 -10  402.66   37.90
   1   8  10  425.46   32.00
  -2  -8 -10 1052.09   79.89
   2   8  10 1000.70   61.49
  -2   8 -10  988.70   67.49
  -2   8 -10  946.61   52.59
   2   8  10 1022.70   52.69
  -3  -8 -10   -2.20    5.30
  -3  -8 -10   -6.60   25.10
  -3   8 -10    3.20    5.20
   3   8  10   -7.20    7.70
  -3   8 -10   -4.30   12.50
   3   8  10    0.00    4.10
  -4  -8 -10  367.16   29.60
  -4  -8 -10  476.75   69.89
  -4  -8 -10  358.06   64.99
   4   8  10  452.25   31.10
  -4   8 -10  402.06   24.80
  -4   8 -10  396.16   24.30
  -4   8 -10  470.25   43.40
   4   8  10  419.56   27.10
  -5  -8 -10  161.18   47.60
  -5  -8 -10   72.99   13.80
  -5   8 -10  119.59   28.10
   5   8  10   99.09   16.80
  -7  -9  10   37.80   27.30
  -7   9  10   48.70   20.90
   7   9 -10   33.90   11.50
  -6  -9  10  170.08   35.80
  -6   9  10   99.49   15.10
  -6   9  10   95.79   23.90
   6   9 -10  120.09   25.60
   6   9 -10  127.29   16.80
   6   9 -10   85.59   18.10
  -5  -9  10  211.48   36.50
   5   9 -10  248.18   23.60
  -5   9  10  316.47   23.10
   5   9 -10  276.77   36.00
  -5   9  10  196.98   33.20
   5   9 -10  264.77   26.00
   5   9 -10  353.16   34.30
  -4  -9  10    8.20   18.40
   4   9 -10   -2.90    9.50
   4   9 -10    5.30   13.70
   4   9 -10   13.70    8.80
  -4   9  10    3.80   12.20
  -4   9  10    8.00    6.20
   4   9 -10    7.20    9.10
  -3  -9  10  306.87   44.50
   3   9 -10  265.87   20.00
   3   9 -10  269.07   35.70
  -3   9  10  280.17   19.40
  -3   9  10  267.37   35.30
   3   9 -10  237.48   23.30
   3   9 -10  271.27   22.50
  -2  -9  10   51.29   20.20
  -2   9  10   72.49   20.00
   2   9 -10   34.50    8.90
  -2   9  10   42.50    8.30
   2   9 -10   65.19   29.10
   2   9 -10   52.09   10.00
   2   9 -10   45.20   10.50
   1  -9 -10   21.90    7.90
  -1  -9  10   12.00   15.70
   1   9 -10   17.10   14.70
  -1   9  10   13.20    5.60
   1   9 -10   24.30   10.30
  -1   9  10   23.00   13.10
   1   9 -10    7.80    7.70
   0  -9 -10   61.69   12.10
   0  -9  10   91.69   22.60
   0   9  10   70.79   10.10
   0   9 -10   72.19   11.70
   0   9  10   68.59   17.00
   0   9 -10   73.29   12.50
   0   9 -10   46.00   17.70
  -1  -9 -10   75.09   14.40
   1  -9  10   49.40   19.30
  -1   9 -10   46.80   10.30
  -1   9 -10   70.49   11.50
  -1   9 -10   65.99   20.10
   1   9  10   47.30   13.60
   1   9  10   60.59    9.70
  -2  -9 -10   24.60   26.50
  -2  -9 -10   21.20    8.10
  -2   9 -10   16.50   14.60
  -2   9 -10   22.40    7.50
   2   9  10   25.00    7.60
   2   9  10   29.30   12.40
  -2   9 -10   22.50    7.40
  -3  -9 -10   12.60    7.60
  -3  -9 -10   60.79   34.50
   3   9  10   12.80    6.90
   3   9  10    4.10    9.00
  -3   9 -10    6.20    6.10
  -3   9 -10   16.90    6.70
  -3   9 -10   11.30   16.80
  -4  -9 -10  122.59   45.60
   4   9  10   83.59   17.60
  -4   9 -10   75.89   23.30
  -4   9 -10  103.89   11.90
   4   9  10   85.49   17.00
  -4   9 -10  105.69   11.90
  -5  -9 -10    9.60   35.00
  -5  -9 -10    1.30   35.90
  -5   9 -10   12.20   19.20
   5   9  10    0.20   10.20
  -6 -10  10   80.49   34.40
  -6  10  10   54.29   22.10
  -6  10  10   43.60   12.70
   6  10 -10   52.99   14.20
   6  10 -10   39.10   26.20
  -5 -10  10   75.09   27.90
   5  10 -10   55.99   13.60
   5  10 -10   80.59   16.30
  -5  10  10   74.69   13.70
   5  10 -10   60.99   22.60
  -5  10  10   45.10   20.00
   5  10 -10   79.29   14.20
  -4 -10  10   56.69   25.10
   4  10 -10   68.79   13.90
   4  10 -10   79.89   13.90
  -4  10  10  105.69   23.80
   4  10 -10   69.59   21.70
   4  10 -10   73.69   16.40
  -3 -10  10  383.56   47.90
   3  10 -10  361.16   28.00
   3  10 -10  344.07   41.90
  -3  10  10  379.66   37.50
   3  10 -10  405.36   26.20
   3  10 -10  331.57   28.80
  -3  10  10  394.16   25.00
  -2 -10  10    5.40   18.00
   2  10 -10   -7.10   11.50
  -2  10  10    3.00    4.60
   2  10 -10   14.60    8.30
  -2  10  10  -14.60   10.10
   2  10 -10   13.20    7.20
  -1 -10  10  581.44   52.09
   1  10 -10  571.24   49.40
   1  10 -10  586.84   38.40
  -1  10  10  591.94   46.00
   1  10 -10  643.74   38.40
  -1  10  10  625.94   35.30
   0 -10  10  317.57   41.00
   0 -10 -10  250.47   23.60
   0  10 -10  349.17   43.30
   0  10 -10  304.67   23.70
   0  10 -10  322.87   23.90
   0  10  10  314.77   21.40
   0  10  10  233.38   30.70
   1 -10  10  226.58   34.30
  -1 -10 -10  162.08   20.50
   1  10  10  153.88   17.30
  -1  10 -10  160.68   19.20
  -1  10 -10  142.69   28.10
   1  10  10  175.78   26.60
  -1  10 -10  178.58   20.00
  -2 -10 -10  597.64   71.89
   2  10  10  631.84   41.40
   2  10  10  577.24   34.00
  -2  10 -10  496.65   33.30
  -2  10 -10  523.15   33.40
  -2  10 -10  548.85   49.60
  -3 -10 -10  -11.90   29.90
   3  10  10  -11.00    9.20
  -3  10 -10    5.30   15.60
  -3  10 -10   -6.20    5.60
  -3  10 -10   -1.90    5.40
   3  10  10    3.90    6.30
  -4 -11  10   17.40   22.60
   4  11 -10   22.90   11.70
   4  11 -10    6.70   10.30
  -4  11  10    1.30   15.10
   4  11 -10   21.70   10.30
  -4  11  10   26.40    9.00
   4  11 -10    1.00   17.40
  -3 -11  10  100.49   29.70
   3  11 -10  120.29   19.10
   3  11 -10  144.29   29.10
  -3  11  10  125.49   16.40
   3  11 -10  122.89   16.50
   3  11 -10  118.59   20.80
  -3  11  10  125.59   26.40
  -2 -11  10   30.40   22.10
   2  11 -10   11.00    8.10
   2  11 -10   17.50    9.90
   2  11 -10   22.70    9.10
   2  11 -10   11.20   16.90
  -2  11  10   17.00   15.90
  -2  11  10   25.50    7.20
  -1 -11  10   15.20   20.50
   1  11 -10   15.90    8.70
  -1  11  10   35.90   17.40
  -1  11  10   17.30    6.90
   1  11 -10    3.00    7.30
   1  11 -10    0.80   15.00
   0 -11  10   33.00   21.30
   0  11 -10   34.90   11.30
   0  11  10   32.10    9.10
   0  11  10   13.50   13.90
   0  11 -10   44.90   11.90
   0  11 -10   23.10   17.10
   1 -11  10    9.10   18.70
  -1  11 -10    7.90   15.20
  -1  11 -10    6.90    7.50
   1  11  10    7.60    6.30
  -1  11 -10   14.60    7.80
   1  11  10    4.20   11.50
   2 -11  10   -6.40   19.40
  -2  11 -10    0.10    6.90
   2  11  10   -2.80   11.00
  -2  11 -10    7.00    6.60
  -2  11 -10   -1.40   14.60
   2  11  10    6.10    6.50
 -10   0  11   16.40   26.60
  -8   0  11   48.90    9.00
  -8   0  11   52.69   21.10
  -7   0  11  128.39   24.80
  -7   0  11  149.29   13.50
   6   0 -11   25.30   18.20
  -6   0  11   17.50    6.00
   6   0 -11   14.00   11.90
  -6   0  11   35.50   14.60
  -5   0  11  874.61   50.99
   5   0 -11  832.32   46.70
  -5   0  11  830.32   52.09
   5   0 -11  896.11   62.69
  -5   0  11  854.91   45.70
  -4   0  11    1.30    8.30
  -4   0  11    4.90    3.90
   4   0 -11    4.40    6.50
  -4   0  11   -3.60    5.20
   4   0 -11    8.40    5.50
   4   0 -11    2.00   14.30
  -3   0  11 1332.47   71.49
  -3   0  11 1430.06   74.09
   3   0 -11 1339.37   85.99
   3   0 -11 1446.76   70.29
   3   0 -11 1336.87   70.49
  -3   0  11 1370.36   88.59
  -2   0  11  799.12   45.80
   2   0 -11  871.51   62.69
  -2   0  11  829.52   63.59
   2   0 -11  882.21   45.50
   2   0 -11  894.41   46.00
  -2   0  11  846.42   46.20
  -1   0  11  948.61   70.79
   1   0 -11 1017.20   52.09
  -1   0  11  945.81   51.69
   1   0 -11 1115.59   70.69
  -1   0  11 1029.00   53.19
   0   0  11 1301.27   67.19
   0   0 -11 1532.95  109.49
   0   0 -11 1318.87   67.39
   0   0  11 1382.56   69.29
   0   0 -11 1426.66   66.79
   0   0  11 1254.97   87.69
  -1   0 -11    5.00    2.80
   1   0  11   12.20    4.80
  -1   0 -11    2.60   14.00
   1   0  11   33.70   26.60
   1   0  11   -2.50   18.20
   2   0  11 1466.25   75.79
  -2   0 -11 1514.45   74.29
  -2   0 -11 1614.54   96.29
  -3   0 -11  151.38   32.10
   3   0  11  145.09   13.10
  -3   0 -11  141.59   11.20
  -4   0 -11   92.89   29.60
   4   0  11  100.99   12.60
  -4   0 -11  108.09   10.10
  -5   0 -11  150.88   52.19
  -5   0 -11  141.79   12.80
  -5   0 -11  118.29   29.20
  -6   0 -11   14.80   35.00
  -6   0 -11    9.30    5.30
  -6   0 -11   -0.30   18.20
  -7   0 -11   47.60   10.40
  -7   0 -11    9.30   40.40
  -7   0 -11   12.50   22.20
   7   0  11   43.80    9.90
  -8   0 -11  -19.00   44.30
  -8   0 -11    6.10   20.80
  -8   0 -11    4.10    7.90
   8   0  11    5.40    8.50
 -10  -1  11  256.27   48.40
 -10   1  11  331.27   51.29
  -9  -1  11  156.28   33.90
  -9   1  11   78.19   10.60
  -9   1  11  100.49   30.30
  -8  -1  11  262.27   38.40
  -8  -1  11  278.77   20.00
  -8   1  11  273.27   19.20
  -8   1  11  320.27   40.10
  -7  -1  11  313.57   37.90
  -7  -1  11  303.27   20.90
   7   1 -11  276.67   23.10
  -7   1  11  344.77   33.90
  -7   1  11  302.17   20.10
  -6  -1  11   35.80   15.00
   6  -1 -11   54.69   23.30
   6  -1 -11   50.29    9.90
  -6  -1  11   55.09    8.80
  -6   1  11   46.70   13.60
  -6   1  11   36.00   15.50
  -6   1  11   36.50    7.90
   6   1 -11   32.30    8.90
  -5  -1  11  526.95   30.10
  -5  -1  11  455.55   36.70
   5  -1 -11  591.44   50.79
   5  -1 -11  491.25   30.50
   5   1 -11  510.35   42.60
   5   1 -11  517.35   31.30
  -5   1  11  471.65   35.40
  -5   1  11  535.35   30.30
  -5   1  11  545.15   35.60
  -4  -1  11  155.98   21.60
   4  -1 -11  165.28   33.00
  -4  -1  11  135.89   30.60
  -4  -1  11  116.29   12.10
   4  -1 -11  136.69   12.70
   4   1 -11  155.18   13.70
  -4   1  11  177.58   20.90
  -4   1  11  180.98   14.20
  -4   1  11  151.08   19.50
   4   1 -11  151.18   26.40
   4   1 -11  152.48   15.10
   3  -1 -11  198.28   17.00
   3  -1 -11  217.68   36.00
  -3  -1  11  213.68   20.50
   3  -1 -11  221.68   15.30
  -3  -1  11  152.28   15.90
  -3  -1  11  195.18   35.50
  -3  -1  11  211.58   15.60
  -3   1  11  197.38   15.80
   3   1 -11  192.28   15.40
  -3   1  11  199.68   18.60
   3   1 -11  230.58   33.20
  -3   1  11  187.98   17.10
  -2  -1  11  123.79   12.00
  -2  -1  11  129.99   11.90
  -2  -1  11  163.28   33.00
   2  -1 -11  154.68   17.70
   2  -1 -11  137.09   11.10
   2  -1 -11  142.39   29.70
   2   1 -11  222.88   34.70
   2   1 -11  105.79   10.90
  -2   1  11  118.09   12.00
  -2   1  11  111.29   14.20
   2   1 -11  126.89   15.20
  -1  -1  11   99.49   10.10
   1  -1 -11   92.59    9.20
  -1  -1  11  125.29   29.30
  -1  -1  11  120.79   11.40
   1  -1 -11  113.99   13.20
   1  -1 -11  116.29   26.70
  -1   1  11  104.59   11.60
   1   1 -11  129.99   26.80
   1   1 -11   99.89   10.10
   1   1 -11   99.99   10.10
  -1   1  11  116.69   13.50
   0  -1  11    7.50    4.70
   0  -1 -11    0.60    2.70
   0  -1 -11    3.30    4.10
   0  -1  11   13.00   18.30
   0   1  11    8.70   17.60
   0   1  11    8.40    5.00
   0   1  11   -3.70   17.80
   0   1 -11   10.80    5.60
   0   1  11    6.10    3.70
  -1  -1 -11   80.29    8.40
   1  -1  11   89.69   10.90
  -1  -1 -11  135.89   30.80
  -1   1 -11  127.49   26.80
   1   1  11   86.29   27.30
   1   1  11   93.79   11.70
   1   1  11   70.09   29.90
  -1   1 -11   92.29    8.90
   1   1  11   78.59   10.50
  -2  -1 -11  957.60   68.39
   2  -1  11  960.10   47.90
  -2  -1 -11  820.72   44.30
  -2  -1 -11  883.41   45.30
   2   1  11  916.51   46.60
  -2   1 -11  780.12   61.79
  -2   1 -11  890.41   45.40
   2   1  11  860.71   45.50
  -3  -1 -11   19.70    5.80
  -3  -1 -11   23.80   18.80
   3   1  11   17.00    5.60
  -3   1 -11   31.80   17.90
   3   1  11   28.00    6.40
  -3   1 -11   35.10    6.10
  -4  -1 -11  516.65   29.30
  -4  -1 -11  491.35   71.29
  -4  -1 -11  551.44   52.89
   4   1  11  526.65   32.50
  -4   1 -11  507.95   28.50
   4   1  11  487.95   28.10
  -4   1 -11  545.75   48.20
  -5  -1 -11  353.66   23.20
  -5  -1 -11  291.37   64.19
  -5  -1 -11  340.77   49.00
  -5   1 -11  365.46   46.70
  -5   1 -11  386.46   22.70
  -6  -1 -11   94.39   12.40
  -6  -1 -11  137.59   48.20
  -6  -1 -11   87.49   29.50
   6   1  11   98.89   12.10
  -6   1 -11   69.69   24.20
  -6   1 -11   86.19   11.60
  -7  -1 -11  432.26   77.69
  -7  -1 -11  342.67   25.20
  -7  -1 -11  247.78   43.30
  -7   1 -11  467.35   92.79
   7   1  11  347.27   23.90
  -7   1 -11  293.17   40.70
  -7   1 -11  357.96   23.70
  -8  -1 -11   20.50   47.80
  -8  -1 -11   15.30    9.40
   8  -1  11   24.30    9.50
  -8   1 -11   96.49   58.79
   8   1  11   25.40   10.60
  -8   1 -11    4.80   20.00
  -8   1 -11   13.80    8.00
 -10  -2  11   25.10   31.30
 -10   2  11   44.50   31.30
  -9  -2  11    3.10   21.90
  -9   2  11    9.60    7.70
  -9   2  11   22.00   23.00
  -8  -2  11  113.99   28.30
  -8   2  11  141.49   12.90
  -8   2  11  164.08   30.20
  -7  -2  11  191.38   31.60
  -7  -2  11  264.07   19.20
   7  -2 -11  229.88   39.80
  -7   2  11  284.57   33.80
   7   2 -11  228.58   21.20
  -7   2  11  236.88   17.40
  -7   2  11  301.57   27.90
  -6  -2  11   80.29   21.50
  -6  -2  11   65.89   10.90
   6  -2 -11   49.90   13.30
   6  -2 -11   94.69   30.30
  -6   2  11   97.89   19.70
  -6   2  11   64.49   10.10
   6   2 -11   72.69   12.90
   5  -2 -11 1148.49   68.79
  -5  -2  11 1342.37   65.59
   5  -2 -11 1542.75   89.09
  -5  -2  11 1198.48   73.09
  -5  -2  11 1211.98   83.59
   5   2 -11 1304.27   66.99
   5   2 -11 1326.07   74.59
  -5   2  11 1281.07   65.49
  -5   2  11 1176.88   69.89
  -5   2  11 1330.17   70.29
   4  -2 -11   11.80   17.50
  -4  -2  11   32.40   13.30
  -4  -2  11   12.80    5.50
   4  -2 -11   16.50    5.10
  -4   2  11   18.20    6.10
   4   2 -11   15.10    5.80
  -4   2  11   19.50    8.30
  -4   2  11   12.80    8.40
   4   2 -11   20.20   12.30
   4   2 -11   12.80    6.90
  -3  -2  11 1674.23   89.09
  -3  -2  11 1674.13   83.29
   3  -2 -11 1615.04   85.59
  -3  -2  11 1582.44  100.99
   3  -2 -11 1742.33   82.29
   3  -2 -11 1808.82  104.09
   3   2 -11 1522.45   85.39
  -3   2  11 1724.93   84.19
   3   2 -11 1685.03   94.79
   3   2 -11 1650.23   83.59
  -3   2  11 1743.33   85.39
  -3   2  11 1632.44   86.49
   2  -2 -11 1472.75   68.39
  -2  -2  11 1380.96   67.69
   2  -2 -11 1227.78   68.59
  -2  -2  11 1262.57   85.19
   2  -2 -11 1509.55   98.19
  -2   2  11 1305.27   69.09
   2   2 -11 1310.87   79.69
  -2   2  11 1303.27   68.29
   2   2 -11 1242.78   65.89
  -1  -2  11  766.02   40.10
   1  -2 -11  772.72   65.59
   1  -2 -11  727.43   37.90
  -1  -2  11  813.22   59.59
  -1   2  11  695.93   40.50
  -1   2  11  690.33   39.10
   1   2 -11  677.43   39.10
   0  -2 -11 3149.58  149.19
   0  -2  11 3214.48  150.88
   0  -2  11 3193.08  176.78
   0  -2 -11 3395.06  172.98
   0   2  11 3196.58  151.18
   0   2  11 2944.51  171.78
   0   2  11 3022.20  149.49
   0   2 -11 3025.00  149.79
   0   2 -11 3104.59  164.48
  -1  -2 -11   23.60    6.80
  -1  -2 -11   27.10   18.40
  -1  -2 -11   28.90    5.10
   1  -2  11   30.70    7.20
   1   2  11   17.60    7.10
  -1   2 -11   30.00    6.10
  -1   2 -11   39.40   16.30
   1   2  11   44.80   22.80
   1   2  11   37.50    7.40
   2  -2  11 1859.41   88.59
  -2  -2 -11 1892.41  111.79
  -2  -2 -11 1751.12   86.29
  -2   2 -11 1753.72   86.19
  -2   2 -11 1783.92  103.09
   2   2  11 1736.33   86.79
   2   2  11 1691.73   86.59
  -3  -2 -11  343.37   20.50
   3  -2  11  357.16   22.50
  -3  -2 -11  378.96   49.99
  -3  -2 -11  359.56   56.89
   3   2  11  304.57   20.40
   3   2  11  315.67   20.50
  -3   2 -11  348.47   43.20
  -3   2 -11  293.57   19.30
  -4  -2 -11   82.19   28.30
  -4  -2 -11   69.49   37.30
  -4  -2 -11   82.09   10.90
   4   2  11  100.09   11.70
  -4   2 -11   91.39   24.60
  -4   2 -11   97.79    9.30
   4   2  11   88.29   11.60
  -5  -2 -11  410.46   32.50
  -5  -2 -11  386.06   54.69
  -5  -2 -11  347.57   66.19
  -5   2 -11  380.36   22.40
   5   2  11  365.76   24.10
   5   2  11  350.96   23.70
  -5   2 -11  391.06   46.20
  -6  -2 -11    2.60    5.80
  -6  -2 -11  -33.50   27.50
  -6  -2 -11    3.20   23.80
   6   2  11   10.20    7.70
  -6   2 -11    0.00    4.20
  -6   2 -11   -3.20   15.20
  -7  -2 -11   52.79   46.30
  -7  -2 -11   73.09   33.60
  -7  -2 -11   72.09   13.10
  -7   2 -11   55.19   23.90
   7   2  11   96.49   14.30
  -7   2 -11   65.29   10.40
  -8  -2 -11  -16.00   46.00
  -8  -2 -11   10.40    9.20
  -8   2 -11    5.70    7.00
  -8   2 -11    4.40   17.60
   8   2  11    4.60    9.80
 -10  -3  11  297.87   50.09
 -10   3  11  289.57   53.49
  -9  -3  11   56.19   26.70
  -9   3  11   53.89   27.80
  -9   3  11   53.79    8.30
  -8  -3  11  245.88   37.70
   8   3 -11  141.89   20.90
  -8   3  11  170.08   13.80
  -8   3  11  147.89   26.50
  -8   3  11  181.38   31.30
  -7  -3  11  145.29   29.10
  -7  -3  11  155.68   15.40
  -7   3  11  194.58   26.80
   7   3 -11  154.38   20.80
  -7   3  11  186.38   14.30
  -7   3  11  184.88   27.90
   6  -3 -11    1.30   21.80
  -6  -3  11   16.60    6.30
  -6  -3  11   21.70   15.10
  -6   3  11   22.80   11.70
   6   3 -11   22.90    9.50
  -6   3  11   19.80   13.10
  -6   3  11   22.50    6.90
   5  -3 -11  282.57   44.30
   5  -3 -11  256.57   17.70
  -5  -3  11  257.87   19.00
  -5  -3  11  217.28   30.40
   5   3 -11  287.87   20.80
   5   3 -11  263.97   26.60
  -5   3  11  290.97   19.80
  -5   3  11  308.47   24.50
  -5   3  11  246.78   23.80
  -4  -3  11   80.09   10.50
  -4  -3  11   91.79   17.70
   4  -3 -11  123.79   29.60
   4  -3 -11   94.39   10.60
  -4  -3  11   77.19   26.50
   4   3 -11   98.39   12.80
  -4   3  11   85.09   15.00
  -4   3  11   90.29   12.80
   4   3 -11  114.39   20.60
   4   3 -11   93.19   14.80
  -4   3  11   96.79   14.20
  -3  -3  11   13.60    5.60
  -3  -3  11    0.90   17.30
   3  -3 -11   19.00    5.00
   3  -3 -11   48.40   22.70
  -3  -3  11   26.60   11.70
  -3   3  11   22.30    9.70
  -3   3  11   11.50    5.60
   3   3 -11   17.90   12.70
  -3   3  11   26.80    8.40
   2  -3 -11   92.69   13.80
   2  -3 -11   97.89   27.30
  -2  -3  11  123.39   20.60
  -2  -3  11   97.19   12.00
   2  -3 -11   80.39    8.40
  -2  -3  11   66.69   23.40
   2   3 -11  110.19   13.50
   2   3 -11   96.79   25.10
   2   3 -11  102.39   11.90
  -2   3  11  103.59   12.70
  -2   3  11  106.19   15.00
   1  -3 -11   93.59   25.50
  -1  -3  11  110.59   15.50
   1  -3 -11   86.39   12.30
   1  -3 -11   97.99    8.90
  -1   3  11  118.59   15.50
  -1   3  11  115.49   10.40
  -1   3  11  109.49   28.30
   1   3 -11  145.99   24.40
   1   3 -11  109.29   13.00
   0  -3 -11   58.39    9.00
   0  -3 -11   73.09    9.50
   0  -3 -11   72.09   24.60
   0  -3  11   41.20    7.90
   0   3  11   48.00   22.00
   0   3 -11   24.30   13.80
   0   3 -11   62.19    9.70
   0   3  11   60.89    8.60
   0   3  11   59.69   11.50
  -1  -3 -11   28.70    5.60
  -1  -3 -11   51.69   23.30
  -1  -3 -11   26.50    6.80
   1   3  11   18.40   17.80
  -1   3 -11   16.90   12.60
   1   3  11   18.70    7.20
   1   3  11   23.30    5.70
  -1   3 -11   25.40    6.30
  -2  -3 -11  506.75   30.00
  -2  -3 -11  524.35   31.90
   2  -3  11  527.85   31.30
  -2  -3 -11  521.75   52.19
  -2   3 -11  561.24   44.40
   2   3  11  530.25   29.50
  -2   3 -11  503.05   29.10
  -3  -3 -11  109.89   12.00
  -3  -3 -11  109.29   36.50
  -3  -3 -11  132.79   34.60
   3   3  11  109.99   12.30
  -3   3 -11   78.79   21.10
  -3   3 -11   84.39    9.90
   3   3  11   89.29   11.40
  -4  -3 -11  275.67   58.49
  -4  -3 -11  264.37   19.70
  -4  -3 -11  289.57   49.40
  -4   3 -11  260.37   36.00
   4   3  11  298.37   20.10
  -4   3 -11  271.27   17.70
   4   3  11  321.67   20.00
  -5  -3 -11  301.37   51.29
  -5  -3 -11  427.76   26.10
  -5  -3 -11  405.06   70.69
  -5   3 -11  317.57   41.90
  -5   3 -11  366.86   22.40
   5   3  11  411.26   25.00
   5   3  11  352.26   24.80
  -6  -3 -11   53.79   39.10
  -6  -3 -11   72.19   32.70
  -6   3 -11   52.39   20.00
   6   3  11   55.99   11.80
  -7  -3 -11  314.17   73.89
  -7  -3 -11  356.56   55.89
  -7  -3 -11  413.36   30.90
   7   3  11  474.05   30.00
  -7   3 -11  448.76   25.80
  -7   3 -11  364.06   44.50
  -9  -4  11   10.80   22.30
  -9   4  11   10.30   15.20
  -9   4  11   25.00   26.00
  -9   4  11    6.50    4.60
  -8  -4  11  104.49   30.80
   8  -4 -11  101.79   39.20
  -8   4  11   80.39   15.10
  -8   4  11   92.09   25.40
   8   4 -11   99.59   16.00
   8   4 -11   89.49   17.20
  -8   4  11  128.59   24.90
  -7  -4  11  138.89   41.90
   7  -4 -11  143.59   37.60
   7   4 -11  139.79   20.20
  -7   4  11  163.28   36.70
  -7   4  11  151.78   13.10
  -7   4  11  126.19   25.00
  -6  -4  11  152.78   39.30
  -6  -4  11  135.19   16.30
  -6  -4  11  143.99   26.60
  -6   4  11  106.19   20.00
   6   4 -11  129.79   18.50
   6   4 -11  132.39   19.60
  -6   4  11  106.49   13.90
  -6   4  11  129.39   20.40
  -5  -4  11  662.73   49.00
  -5  -4  11  697.63   59.49
  -5  -4  11  624.94   39.10
  -5   4  11  742.23   42.40
  -5   4  11  661.43   45.10
  -5   4  11  713.83   40.20
   5   4 -11  743.93   46.20
   5   4 -11  760.42   41.70
   4  -4 -11    4.40    3.70
  -4  -4  11    1.30    4.20
  -4  -4  11  -13.10   17.60
  -4  -4  11    8.20   11.50
  -4   4  11    5.50    6.90
   4   4 -11   -1.70    4.40
  -4   4  11   -1.20    4.50
  -3  -4  11 1110.19   57.79
   3  -4 -11 1114.59   55.69
  -3  -4  11 1100.89   65.39
  -3  -4  11 1024.30   81.99
   3   4 -11 1236.18   67.59
  -3   4  11 1168.88   58.39
  -3   4  11 1087.49   62.09
   3   4 -11 1045.70   58.29
   3   4 -11 1094.59   58.59
   2  -4 -11  697.63   39.30
  -2  -4  11  787.72   49.80
   2   4 -11  806.42   51.49
   2   4 -11  732.13   40.70
  -2   4  11  818.72   45.90
  -2   4  11  701.33   53.99
   2   4 -11  804.12   42.60
  -2   4  11  768.62   41.10
   1  -4 -11  462.55   55.59
   1  -4 -11  423.16   23.70
  -1  -4  11  427.96   25.10
  -1   4  11  380.86   23.70
   1   4 -11  366.66   24.90
  -1   4  11  411.96   28.30
   1   4 -11  414.36   34.80
  -1   4  11  378.46   38.00
   0  -4  11 2208.58  106.29
   0  -4 -11 2447.66  133.59
   0   4  11 2112.09  108.89
   0   4 -11 2114.09  106.29
   0   4 -11 2193.08  118.19
   0   4  11 2085.79  104.89
   0   4  11 2198.38  118.79
  -1  -4 -11   57.49   26.80
   1  -4  11   61.19   10.00
   1   4  11   73.79   22.00
  -1   4 -11   61.99   10.20
   1   4  11   52.49   10.80
  -1   4 -11   63.99   17.50
   1   4  11   59.59    8.60
  -2  -4 -11 1325.87   91.59
  -2  -4 -11 1247.08   64.29
   2  -4  11 1268.47   64.89
  -2  -4 -11 1330.77   90.69
   2   4  11 1326.37   65.99
  -2   4 -11 1360.16   78.89
  -2   4 -11 1275.57   64.49
   2   4  11 1156.38   63.49
  -3  -4 -11  266.47   46.70
  -3  -4 -11  264.67   50.09
  -3  -4 -11  245.18   18.10
  -3   4 -11  293.47   37.20
   3   4  11  257.97   17.80
  -3   4 -11  259.37   17.10
   3   4  11  261.97   19.90
  -4  -4 -11  175.98   49.10
  -4  -4 -11  106.19   34.10
  -4  -4 -11  147.49   14.00
   4   4  11  139.29   14.50
   4   4  11  134.09   12.60
  -4   4 -11  157.68   29.70
  -4   4 -11  112.79   10.70
  -5  -4 -11  302.77   54.39
  -5  -4 -11  399.16   69.89
  -5  -4 -11  330.77   23.20
   5   4  11  287.47   21.20
   5   4  11  316.07   23.20
  -5   4 -11  302.47   19.10
  -5   4 -11  329.17   40.30
  -6  -4 -11   -5.50    6.10
  -6  -4 -11    2.80   38.40
  -6  -4 -11   -3.50   26.90
  -6   4 -11   -3.00    3.90
   6   4  11   -9.80    7.90
  -6   4 -11    3.80   14.60
  -7  -4 -11   39.00   35.90
  -7  -4 -11   76.19   51.69
  -7  -4 -11   30.10   10.70
   7   4  11   51.59   13.10
  -7   4 -11   65.69   24.70
  -9  -5  11   29.00   24.90
  -9   5  11   20.20    5.50
  -9   5  11   66.79   30.30
  -9   5  11   23.80   17.70
  -8  -5  11  138.29   33.00
   8  -5 -11  149.29   24.00
  -8   5  11  170.58   43.20
  -8   5  11  163.78   13.10
  -8   5  11  155.18   26.80
   8   5 -11  144.69   23.90
  -7  -5  11  214.48   36.30
   7   5 -11  141.79   19.90
   7   5 -11  155.08   20.90
  -7   5  11  148.09   25.80
  -7   5  11  187.58   14.80
  -6  -5  11   23.00   17.60
  -6  -5  11   37.00    9.20
  -6  -5  11   -3.30   25.80
  -6   5  11   16.20   12.00
   6   5 -11   12.30    7.40
   6   5 -11   31.70   14.10
  -6   5  11   19.60    7.50
  -5  -5  11  316.97   22.30
  -5  -5  11  292.77   51.79
  -5  -5  11  329.77   33.20
   5   5 -11  343.87   29.70
  -5   5  11  242.88   26.80
   5   5 -11  357.76   24.70
  -5   5  11  337.77   23.50
  -4  -5  11   38.70    7.90
  -4  -5  11   55.29   16.70
   4  -5 -11   51.09    7.20
   4   5 -11   53.89   14.80
  -4   5  11   84.29   19.50
  -4   5  11   63.69   15.00
   3  -5 -11   61.79    8.20
  -3  -5  11   56.59    8.70
  -3  -5  11   78.59   17.40
  -3   5  11   72.69   14.70
  -3   5  11   47.60    8.90
   3   5 -11   49.00   10.80
   3   5 -11   54.19   11.50
   3   5 -11   57.89   16.40
   2  -5 -11   54.29    8.10
  -2  -5  11   66.29   10.90
  -2  -5  11   49.80   15.50
   2   5 -11   39.20   14.40
   2   5 -11   43.10    8.80
  -2   5  11   38.10    7.60
  -2   5  11   34.90   11.40
  -1  -5  11   30.90    7.90
   1  -5 -11   43.10    7.20
  -1   5  11   61.59   13.70
   1   5 -11  115.49   23.20
   1   5 -11   72.39   11.40
  -1   5  11   52.69    8.00
   0  -5  11    6.30    4.30
   0  -5 -11    1.60    3.70
   0   5  11    5.70   12.90
   0   5  11   -1.20    6.60
   0   5 -11   -8.50    8.10
   0   5 -11    3.50    4.10
   0   5  11   11.00    4.60
  -1  -5 -11   -8.60   17.30
   1  -5  11   17.70    6.00
  -1  -5 -11   16.30    5.00
   1   5  11   17.20    5.20
   1   5  11   25.00   15.70
  -1   5 -11   27.90    7.20
   1   5  11   14.30    8.30
  -1   5 -11   17.90   11.40
  -2  -5 -11  250.47   44.80
  -2  -5 -11  225.48   16.70
  -2  -5 -11  263.77   47.30
  -2   5 -11  213.58   16.40
   2   5  11  222.18   18.90
  -2   5 -11  261.07   35.30
   2   5  11  212.18   15.80
  -3  -5 -11   69.29   32.30
  -3  -5 -11   48.30   28.50
   3   5  11   48.30   10.60
   3   5  11   46.90    8.50
  -3   5 -11   59.39   19.60
  -3   5 -11   60.99    9.40
  -4  -5 -11  246.68   19.30
  -4  -5 -11  250.77   48.60
  -4  -5 -11  264.47   55.09
  -4   5 -11  214.68   15.40
  -4   5 -11  259.67   35.30
   4   5  11  224.88   17.30
   4   5  11  214.98   19.20
  -5  -5 -11  256.07   51.29
  -5  -5 -11  297.17   76.19
  -5  -5 -11  282.07   22.40
   5   5  11  261.07   20.10
   5   5  11  282.87   22.70
  -5   5 -11  270.77   36.70
  -6  -5 -11   12.80    9.20
  -6  -5 -11   32.90   35.10
  -6  -5 -11   31.40   41.10
   6   5  11   16.70    7.40
   6   5  11   35.70   11.60
  -7  -5 -11  296.07   26.20
  -7  -5 -11  150.88   46.80
  -7  -5 -11  261.87   65.79
  -7   5 -11  191.48   34.20
   7   5  11  284.57   24.90
  -9  -6  11    4.00   24.30
  -9   6  11    8.60   16.00
  -8  -6  11   68.99   28.50
   8   6 -11   50.99   15.30
  -8   6  11   72.09   22.10
   8   6 -11   15.40   14.30
  -8   6  11   54.59    8.10
  -7  -6  11  113.59   28.60
   7   6 -11   93.69   18.40
  -7   6  11  104.79   23.40
   7   6 -11  113.59   18.40
  -7   6  11  103.99   15.70
  -6  -6  11   49.90   21.70
   6   6 -11   54.39   13.10
  -6   6  11   28.10   16.30
   6   6 -11   44.40   12.90
   6   6 -11   53.49   16.70
  -6   6  11   62.49   11.60
  -5  -6  11  644.54   50.09
  -5   6  11  606.74   44.60
   5   6 -11  693.23   45.40
   5   6 -11  618.24   39.20
  -5   6  11  642.74   38.30
  -4  -6  11   -1.20    4.10
  -4  -6  11    3.60   12.80
  -4   6  11   -0.70    5.30
   4   6 -11   -3.90    4.60
  -4   6  11   -7.60    7.50
   4   6 -11   -2.60    9.60
   3  -6 -11  960.20   52.09
  -3  -6  11  979.20   55.09
  -3  -6  11 1103.89   65.59
  -3   6  11 1020.60   53.89
  -3   6  11 1055.19   61.49
   3   6 -11 1146.69   64.79
  -2  -6  11  603.14   45.10
   2  -6 -11  608.04   34.10
  -2  -6  11  613.74   35.80
  -2   6  11  623.54   41.90
   2   6 -11  656.53   45.60
  -2   6  11  637.24   34.80
   2   6 -11  653.63   37.30
   1  -6 -11  462.15   26.30
  -1  -6  11  424.76   26.90
  -1  -6  11  463.35   37.50
  -1   6  11  466.15   26.00
  -1   6  11  420.86   32.20
   1   6 -11  392.46   35.60
   1   6 -11  426.76   27.90
   0  -6 -11 1620.04   79.49
   0   6 -11 1679.73   92.19
   0   6  11 1536.75   84.39
   0   6  11 1495.25   84.39
   0   6  11 1621.04   78.79
   0   6 -11 1593.14   80.59
   1  -6  11   -2.00    3.90
  -1  -6 -11    0.30    4.00
  -1   6 -11    3.30   10.30
  -1   6 -11    2.10    4.40
   1   6  11   -4.20    7.80
   1   6  11   -1.10   10.80
   1   6  11    2.10    3.40
  -2  -6 -11  944.41   79.69
  -2  -6 -11  936.51   75.99
   2   6  11  927.41   48.90
  -2   6 -11  926.51   62.39
  -2   6 -11  933.11   49.50
   2   6  11  920.91   52.29
  -3  -6 -11  157.48   40.30
  -3  -6 -11  111.69   37.90
  -3  -6 -11  160.88   15.40
   3   6  11  146.79   18.30
  -3   6 -11  166.08   29.90
  -3   6 -11  149.49   13.40
   3   6  11  169.68   14.10
  -4  -6 -11  113.79   15.20
  -4  -6 -11   93.19   40.50
  -4  -6 -11   81.29   33.50
  -4   6 -11  129.79   28.10
   4   6  11  131.79   17.00
  -4   6 -11  136.49   11.40
   4   6  11  113.39   14.00
  -5  -6 -11  216.78   58.99
  -5  -6 -11  197.48   21.90
  -5  -6 -11  121.59   40.00
   5   6  11  197.88   19.60
  -5   6 -11  198.58   34.10
  -5   6 -11  138.59   12.10
   5   6  11  170.88   16.00
  -6  -6 -11   -9.90   30.60
  -6  -6 -11   12.00   36.50
  -6  -6 -11   -7.70    6.50
   6   6  11  -15.30    8.20
  -6   6 -11   -7.00   15.50
  -8  -7  11   91.99   32.10
  -8   7  11  113.79   25.80
  -7  -7  11  228.38   40.30
  -7   7  11  125.79   25.10
  -7   7  11  125.79   14.30
   7   7 -11  117.99   21.70
   7   7 -11  118.99   20.60
   7   7 -11  108.39   20.20
  -6  -7  11  -10.60   16.20
   6   7 -11   14.90    9.70
  -6   7  11   21.20    8.80
   6   7 -11   26.80   14.80
   6   7 -11    2.40   10.20
  -6   7  11   28.30   13.60
  -5  -7  11  264.37   46.90
  -5   7  11  294.37   22.30
   5   7 -11  300.17   33.60
  -5   7  11  195.88   33.50
   5   7 -11  236.98   23.90
  -4  -7  11   16.20   15.70
   4   7 -11   22.80   14.20
   4   7 -11   21.10    8.30
  -4   7  11   24.50    8.10
  -4   7  11    6.90   11.00
  -3  -7  11   26.80    8.30
   3  -7 -11   28.20   10.00
  -3  -7  11   46.40   17.60
   3   7 -11   30.60    8.60
  -3   7  11   38.80    7.90
   3   7 -11   33.40   15.20
  -3   7  11   28.40   13.10
   2  -7 -11   13.30    7.30
  -2  -7  11   14.30    6.40
  -2  -7  11    4.80   12.20
  -2   7  11    5.10    4.80
  -2   7  11   10.20   11.50
   2   7 -11  -12.20    9.90
   2   7 -11   11.30    6.20
   1  -7 -11    9.00    5.20
  -1  -7  11   12.60   14.10
  -1  -7  11    5.00    5.10
  -1   7  11   14.50    5.60
  -1   7  11   12.80   10.20
   1   7 -11   19.90    7.40
   1   7 -11   22.80   12.90
   0  -7 -11   36.90    7.90
   0  -7  11   48.70    8.80
   0   7 -11   50.49    9.70
   0   7 -11   50.59   17.00
   0   7  11   42.30    7.60
   0   7  11   45.90   13.00
  -1  -7 -11   18.80    6.80
   1   7  11   16.50   13.00
   1   7  11   -4.40    7.50
  -1   7 -11   -3.50    9.70
  -1   7 -11    9.20    5.40
   1   7  11   10.60    4.90
  -2  -7 -11  350.36   24.10
  -2  -7 -11  377.36   55.89
   2   7  11  325.27   26.30
  -2   7 -11  379.06   36.70
  -2   7 -11  310.97   22.40
   2   7  11  337.37   22.20
  -3  -7 -11   76.69   36.70
  -3  -7 -11   69.59   34.20
  -3  -7 -11   56.29   11.30
   3   7  11   81.99   11.30
  -3   7 -11   66.59   22.40
  -3   7 -11   76.79   11.10
  -4  -7 -11  195.48   32.90
  -4  -7 -11  192.28   48.10
  -4  -7 -11  271.57   52.89
   4   7  11  210.48   18.10
  -4   7 -11  222.58   35.90
   4   7  11  259.47   22.50
  -4   7 -11  227.68   16.20
  -5  -7 -11  188.88   53.39
  -5  -7 -11  153.58   44.70
  -5  -7 -11  190.48   23.20
   5   7  11  234.48   22.20
  -5   7 -11  210.78   34.40
   5   7  11  156.38   19.40
  -6  -7 -11    6.90    9.10
  -6  -7 -11    5.30   37.70
  -6  -7 -11   65.99   43.80
   6   7  11   26.20   13.10
  -6   7 -11    6.60   18.80
  -7  -8  11  110.09   32.30
  -7   8  11   90.59   23.70
   7   8 -11   77.79   19.50
  -7   8  11   94.99   13.50
  -6  -8  11   11.40   20.50
  -6   8  11   27.50   17.10
   6   8 -11   16.70   11.20
  -6   8  11    5.20    8.10
   6   8 -11    7.60   10.80
   6   8 -11   20.30   15.80
  -5  -8  11  580.54   50.99
  -5   8  11  524.95   33.70
   5   8 -11  554.14   43.40
   5   8 -11  495.25   35.00
   5   8 -11  513.35   37.00
  -5   8  11  488.45   42.40
  -4  -8  11   19.00   20.40
  -4   8  11   21.60    7.80
   4   8 -11    1.10    8.50
   4   8 -11    7.30    6.90
  -4   8  11   12.40   13.40
   4   8 -11   24.60   14.10
   4   8 -11   -0.50    6.90
  -3  -8  11  752.42   55.39
  -3   8  11  741.83   40.60
   3   8 -11  732.83   43.50
  -3   8  11  666.23   57.39
   3   8 -11  718.13   39.90
   3   8 -11  738.53   52.39
  -2  -8  11  595.84   46.10
   2  -8 -11  547.05   32.60
   2   8 -11  561.84   34.90
  -2   8  11  518.65   44.40
   2   8 -11  553.24   31.00
   2   8 -11  523.15   43.50
  -1  -8  11  432.46   39.90
   1  -8 -11  443.76   28.20
   1   8 -11  427.06   38.80
  -1   8  11  424.26   35.50
  -1   8  11  449.46   26.80
   1   8 -11  454.65   29.70
   0  -8  11 1246.08   77.29
   0  -8 -11 1260.17   66.09
   0   8  11 1240.48   64.09
   0   8 -11 1298.47   66.79
   0   8 -11 1272.97   83.49
   0   8  11 1195.88   74.69
  -1  -8 -11   12.10    7.00
   1   8  11    0.20   13.80
  -1   8 -11   -1.00   12.10
   1   8  11    3.10   11.50
  -1   8 -11    7.00    6.70
   1   8  11    2.20    4.60
  -2  -8 -11  520.75   34.60
  -2  -8 -11  671.83   77.59
   2   8  11  567.64   32.60
  -2   8 -11  574.44   47.50
   2   8  11  566.04   38.00
  -2   8 -11  504.85   32.20
  -3  -8 -11  199.28   48.20
  -3   8 -11  155.78   15.10
   3   8  11  158.98   21.30
  -3   8 -11  146.09   30.60
   3   8  11  145.79   14.40
  -4  -8 -11   41.60   11.90
  -4  -8 -11   62.69   38.10
  -4  -8 -11   71.59   38.80
   4   8  11   86.19   15.80
   4   8  11   61.99   11.10
  -4   8 -11  105.99   25.80
  -4   8 -11   61.59    9.20
  -5  -8 -11  138.09   46.60
  -5  -8 -11   88.49   15.60
  -5  -8 -11  127.69   49.60
   5   8  11  161.48   21.70
  -5   8 -11  140.49   32.00
  -6  -9  11   -2.20   20.30
  -6   9  11   -0.50   14.90
   6   9 -11    9.80   17.60
  -6   9  11   -4.60    8.20
   6   9 -11    0.80    8.60
   6   9 -11    3.40   15.50
  -5  -9  11  177.68   33.50
   5   9 -11  173.88   29.00
  -5   9  11  155.58   18.90
   5   9 -11  165.68   27.90
  -5   9  11  126.89   27.10
   5   9 -11  150.78   35.70
   5   9 -11  146.09   22.30
  -4  -9  11   65.69   25.70
  -4   9  11   30.30    8.90
   4   9 -11   54.59   21.20
   4   9 -11   34.20   12.00
   4   9 -11   31.40   10.30
  -4   9  11   55.19   17.90
   4   9 -11   28.40    9.60
  -3  -9  11    8.40   17.80
   3   9 -11    7.00    6.90
   3   9 -11    3.70    8.70
   3   9 -11   17.70   11.30
  -3   9  11   21.10   14.10
  -3   9  11   14.20    6.40
  -2  -9  11   18.70   19.90
   2   9 -11   25.30    9.90
   2   9 -11   59.89   19.40
  -2   9  11    5.00   11.70
  -2   9  11   26.60    7.20
   2   9 -11   31.20    7.90
   2   9 -11   31.50    9.60
   1  -9 -11   40.50   10.10
  -1  -9  11   64.69   20.80
   1   9 -11   60.79   21.10
  -1   9  11   65.89   10.50
   1   9 -11   49.70   11.60
  -1   9  11   63.09   17.30
   1   9 -11   52.49   10.70
   0  -9 -11   10.70    7.00
   0  -9  11   16.00   15.90
   0   9 -11   12.00   14.00
   0   9  11   12.30    6.10
   0   9  11    6.90   11.30
   0   9 -11    5.80    6.70
   0   9 -11   10.70    6.90
  -1  -9 -11   51.19   10.80
   1   9  11   45.70    9.00
   1   9  11   55.39   14.70
  -1   9 -11   55.59   11.60
  -1   9 -11   54.79   19.80
  -1   9 -11   76.79   13.30
  -2  -9 -11  180.28   22.00
  -2  -9 -11  262.67   50.09
   2   9  11  201.68   17.10
   2   9  11  201.28   25.50
  -2   9 -11  187.68   17.10
  -2   9 -11  209.68   18.40
  -2   9 -11  169.38   32.70
  -3  -9 -11   17.70   33.40
  -3  -9 -11   16.10    8.60
  -3   9 -11   28.70    8.00
   3   9  11   33.30    8.40
   3   9  11   18.70   12.20
  -3   9 -11   30.60   18.90
  -3   9 -11   33.00    8.70
  -4  -9 -11  142.19   49.10
  -4  -9 -11  139.69   49.40
   4   9  11  120.29   19.80
  -4   9 -11  157.48   14.10
  -4   9 -11  172.78   14.60
  -4   9 -11  135.19   29.40
  -5 -10  11  284.27   45.20
   5  10 -11  270.97   37.30
  -5  10  11  298.87   23.70
   5  10 -11  204.08   24.70
   5  10 -11  288.97   23.40
   5  10 -11  191.58   25.10
  -5  10  11  158.18   29.40
  -4 -10  11   10.20   21.40
   4  10 -11   -4.20   14.20
   4  10 -11    5.10    8.60
   4  10 -11   -6.90    6.50
   4  10 -11    3.90   10.50
  -4  10  11   -6.50   12.50
  -3 -10  11  318.87   43.80
  -3  10  11  362.96   25.50
   3  10 -11  401.86   29.60
   3  10 -11  473.15   42.30
   3  10 -11  373.96   25.90
  -3  10  11  407.06   38.30
   3  10 -11  358.26   30.10
  -2 -10  11  216.08   36.70
   2  10 -11  305.67   25.60
   2  10 -11  195.18   23.80
   2  10 -11  319.27   41.30
  -2  10  11  323.47   38.50
  -2  10  11  278.97   20.00
   2  10 -11  261.37   20.30
  -1 -10  11  176.38   33.70
  -1  10  11  165.38   27.30
   1  10 -11  188.68   21.70
  -1  10  11  182.18   16.00
   1  10 -11  163.58   30.50
   1  10 -11  150.18   20.50
   0 -10  11  711.43   55.19
   0 -10 -11  643.64   42.30
   0  10 -11  669.43   54.89
   0  10  11  720.83   39.40
   0  10 -11  623.24   41.20
   0  10 -11  690.53   41.40
   0  10  11  676.23   48.60
  -1 -10 -11    0.80    9.30
   1 -10  11   15.80   20.40
  -1  10 -11  -10.40   12.60
   1  10  11   10.10    6.20
  -1  10 -11    8.40    8.00
   1  10  11    9.30   14.00
  -1  10 -11   22.30    9.00
  -2 -10 -11  381.56   63.19
  -2  10 -11  358.66   25.60
   2  10  11  374.26   25.70
   2  10  11  367.96   32.30
  -2  10 -11  366.56   26.20
  -2  10 -11  319.07   43.30
  -3 -10 -11   75.69   42.40
  -3  10 -11   69.09   11.70
  -3  10 -11   72.89   11.50
  -3  10 -11   93.69   28.00
   3  10  11   54.19   16.50
  -3 -11  11   26.50   24.00
   3  11 -11   11.00   17.50
  -3  11  11    8.40   10.80
  -3  11  11   20.00   16.50
   3  11 -11   21.30   11.10
   3  11 -11    5.30    8.70
   3  11 -11    0.50   17.40
  -2 -11  11    9.40   20.80
   2  11 -11   12.90   18.00
   2  11 -11   23.20   11.00
   2  11 -11   15.30    9.30
  -2  11  11   29.70   17.70
   2  11 -11   14.10    9.40
  -2  11  11   14.70    6.50
  -1 -11  11   21.10   21.90
   1  11 -11   -6.50   13.60
  -1  11  11    8.30   14.00
  -1  11  11   13.80    6.40
   1  11 -11    6.90    8.10
   1  11 -11    3.90    8.10
   0 -11  11   31.50   22.80
   0  11 -11   -2.80   14.40
   0  11 -11   -3.20    6.70
   0  11 -11   -0.30    6.90
   0  11  11   -2.80   12.80
   0  11  11    3.90    6.40
   1 -11  11   -4.30   18.90
   1  11  11    9.70    7.00
  -1  11 -11   12.80    8.30
  -1  11 -11   -7.00   13.90
  -1  11 -11    6.90    8.20
   1  11  11   -3.30   11.40
 -10   0  12   42.90   30.30
  -9   0  12   63.29   10.50
  -9   0  12  110.49   32.30
  -8   0  12   66.89   24.90
  -8   0  12   53.99    9.90
  -7   0  12  547.85   32.40
  -7   0  12  550.34   45.60
   6   0 -12   17.00   19.00
  -6   0  12   16.80   13.20
  -6   0  12   26.10    6.20
  -5   0  12 1022.10   62.29
   5   0 -12 1013.30   56.39
   5   0 -12 1079.79   73.89
  -5   0  12 1115.19   61.19
  -5   0  12 1073.09   55.89
   4   0 -12  566.34   33.20
   4   0 -12  604.84   51.09
  -4   0  12  584.54   33.20
  -4   0  12  540.85   42.40
  -4   0  12  518.25   35.30
  -3   0  12  673.13   42.90
   3   0 -12  791.02   58.59
  -3   0  12  622.04   39.20
   3   0 -12  699.93   38.20
  -3   0  12  670.83   39.00
  -3   0  12  697.23   58.69
   3   0 -12  663.63   38.70
   2   0 -12 2314.07  139.99
  -2   0  12 2162.58  129.49
  -2   0  12 2334.97  109.79
   2   0 -12 2241.58  108.39
   2   0 -12 2240.38  108.79
  -2   0  12 2037.00  108.59
  -1   0  12   12.70    5.70
   1   0 -12   -2.40   13.50
  -1   0  12   11.30   20.90
   1   0 -12    3.50    3.20
   1   0 -12    8.30    5.60
  -1   0  12    9.40    5.10
   0   0 -12 1496.45   71.39
   0   0  12 1462.65   74.49
   0   0  12 1398.46   72.29
   0   0 -12 1436.86   72.49
   0   0 -12 1541.65   93.79
  -1   0 -12  359.76   22.30
   1   0  12  383.16   24.40
  -1   0 -12  449.16   52.59
  -2   0 -12  247.98   16.80
  -2   0 -12  261.27   41.30
   2   0  12  277.17   19.30
   3   0  12  230.58   18.10
  -3   0 -12  234.78   16.20
  -3   0 -12  333.77   46.80
  -4   0 -12   43.50   24.30
   4   0  12   27.20    7.30
  -5   0 -12   33.70   25.00
  -5   0 -12   33.60    8.10
  -6   0 -12   33.70    8.10
  -6   0 -12   43.80   27.20
  -7   0 -12    1.90   12.30
  -7   0 -12   20.20   43.00
   7   0  12   -0.30    8.20
  -7   0 -12   -0.90   21.40
 -10  -1  12  145.09   37.70
 -10   1  12  158.48   39.40
  -9  -1  12  142.19   34.30
  -9   1  12  181.18   15.50
  -9   1  12  165.08   35.00
  -8  -1  12   18.50    7.20
  -8  -1  12   13.10   19.20
  -8   1  12   19.30    6.70
  -8   1  12   32.00   20.40
  -7  -1  12  274.17   19.90
  -7  -1  12  292.77   37.10
   7   1 -12  262.07   22.20
  -7   1  12  261.97   34.40
  -7   1  12  246.58   18.90
  -6  -1  12    5.00   12.00
   6  -1 -12    1.60    5.60
   6  -1 -12   22.30   19.60
  -6  -1  12    2.10    4.80
  -6   1  12    1.80   12.10
  -6   1  12    4.10    4.70
  -6   1  12    2.40    8.20
   6   1 -12    4.60   15.60
   6   1 -12    4.70    6.30
  -5  -1  12   62.09   16.10
   5  -1 -12   14.90   21.70
  -5  -1  12   33.40    7.40
   5  -1 -12   30.70    7.80
   5   1 -12   85.59   25.10
   5   1 -12   40.10    9.70
  -5   1  12   31.40   11.90
  -5   1  12   60.49   18.40
  -5   1  12   31.80    7.30
  -4  -1  12   83.69   12.00
  -4  -1  12   62.79   15.30
  -4  -1  12   65.99   13.60
  -4  -1  12   31.00   24.00
   4  -1 -12   59.49   10.00
   4  -1 -12   65.49   25.30
  -4   1  12   55.19   12.90
   4   1 -12   74.09   21.60
   4   1 -12   49.10    9.70
  -4   1  12   46.70    8.70
  -4   1  12   35.50   10.20
   3  -1 -12   74.29   10.30
  -3  -1  12   56.09   14.10
   3  -1 -12   45.20   10.10
  -3  -1  12   59.49   10.70
  -3  -1  12   85.09   27.70
  -3  -1  12   53.79   11.00
  -3   1  12   50.19   12.00
   3   1 -12   36.70    7.80
   3   1 -12   32.20    8.30
   3   1 -12   30.10   17.20
  -3   1  12   28.80    7.70
  -2  -1  12   56.69    8.80
  -2  -1  12   96.99   29.80
  -2  -1  12   67.89   11.10
   2  -1 -12   55.49   22.70
   2  -1 -12   77.29   10.60
   2  -1 -12   88.69   12.80
  -2   1  12   55.89   11.10
   2   1 -12   87.39   26.70
   2   1 -12   74.69   10.60
  -2   1  12   72.49   11.10
   1  -1 -12  105.99   12.90
  -1  -1  12  116.69   14.30
   1  -1 -12   74.89   24.20
  -1  -1  12   95.29   12.10
   1  -1 -12   71.89    9.40
   1   1 -12  182.78   33.40
   1   1 -12   96.59   12.50
  -1   1  12  132.39   14.70
   1   1 -12  104.39   11.70
  -1   1  12  101.39   13.40
   0  -1 -12  488.25   26.50
   0  -1  12  472.65   31.10
   0  -1 -12  488.75   55.69
   0  -1 -12  450.15   26.20
   0   1  12  425.86   27.30
   0   1 -12  489.95   44.50
   0   1  12  531.35   64.09
   0   1 -12  429.66   26.70
   0   1  12  478.55   28.20
  -1  -1 -12   73.49    9.20
  -1  -1 -12   92.59   10.90
   1  -1  12  101.39   13.10
  -1  -1 -12  109.09   28.10
   1   1  12   97.59   12.20
  -1   1 -12  111.29   27.20
  -1   1 -12  105.99   11.30
  -2  -1 -12  875.81   43.90
  -2  -1 -12  765.62   42.50
  -2  -1 -12  871.81   67.39
   2  -1  12  864.41   46.20
   2   1  12  815.92   44.10
  -2   1 -12  825.02   63.09
  -2   1 -12  867.91   43.80
   2   1  12  829.92   45.10
   3  -1  12  598.74   35.80
  -3  -1 -12  685.23   34.30
  -3  -1 -12  732.03   59.89
   3   1  12  587.14   34.70
  -3   1 -12  534.95   50.89
  -3   1 -12  569.44   33.00
  -4  -1 -12   22.80   22.90
  -4  -1 -12   40.50    8.00
   4   1  12   20.70    6.60
  -4   1 -12   25.50   18.50
  -4   1 -12   38.10    7.20
   4   1  12   28.20    7.30
  -5  -1 -12  657.83   35.90
  -5  -1 -12  521.55   64.69
  -5  -1 -12  486.95  100.09
  -5   1 -12  640.84   34.80
   5   1  12  596.64   35.20
  -5   1 -12  600.84   55.39
  -6  -1 -12   41.40   42.70
  -6  -1 -12   14.70   25.30
  -6  -1 -12    6.30    5.90
  -6   1 -12   -2.20   19.80
   6   1  12    8.40    7.40
  -6   1 -12   15.80    6.50
  -7  -1 -12  193.48   62.79
  -7  -1 -12  275.77   22.70
  -7  -1 -12  268.97   46.10
  -7   1 -12  231.38   39.40
  -7   1 -12  282.67   21.00
 -10  -2  12   84.29   34.70
 -10   2  12   83.39   32.40
  -9  -2  12   47.50   25.30
  -9   2  12   86.99   14.70
  -9   2  12   71.69   28.00
  -8  -2  12   46.80    9.30
  -8  -2  12   47.50   39.40
  -8   2  12   40.80    8.30
  -8   2  12   29.20   21.40
  -7  -2  12  672.63   37.50
   7  -2 -12  715.33   64.39
  -7  -2  12  631.74   50.69
  -7   2  12  627.64   45.40
   7   2 -12  551.04   39.70
  -7   2  12  676.83   48.90
  -6  -2  12   45.50    8.90
  -6  -2  12   51.39   18.00
  -6   2  12   16.40   11.40
   6   2 -12   68.69   19.00
   6   2 -12   41.20    9.70
  -6   2  12   56.99   15.90
  -6   2  12   51.49    9.90
  -5  -2  12 1097.69   82.09
  -5  -2  12 1183.08   61.79
  -5  -2  12 1203.38   70.99
   5  -2 -12 1290.07   87.19
   5   2 -12 1187.18   63.19
  -5   2  12 1230.18   62.49
   5   2 -12 1226.78   72.59
  -5   2  12 1103.69   66.39
  -5   2  12 1182.78   66.69
  -4  -2  12  555.84   54.99
   4  -2 -12  558.64   32.30
   4  -2 -12  622.54   55.29
  -4  -2  12  604.74   33.60
  -4  -2  12  580.04   40.70
   4   2 -12  611.14   45.70
  -4   2  12  591.54   36.90
  -4   2  12  495.05   36.10
   4   2 -12  574.04   34.20
  -4   2  12  573.64   34.30
   3  -2 -12  549.74   31.50
  -3  -2  12  579.64   39.80
  -3  -2  12  584.54   33.20
   3  -2 -12  531.75   51.29
  -3  -2  12  585.04   54.09
  -3   2  12  583.14   36.20
   3   2 -12  556.54   32.90
   3   2 -12  555.14   33.30
  -3   2  12  519.35   34.90
  -3   2  12  576.24   33.90
  -2  -2  12 2921.81  138.69
  -2  -2  12 2572.84  162.78
   2  -2 -12 2727.13  139.39
   2  -2 -12 2798.02  159.28
   2  -2 -12 2943.61  136.79
   2   2 -12 2815.82  138.39
  -2   2  12 2975.30  143.19
   2   2 -12 2824.32  136.79
   2   2 -12 3018.80  153.68
   1  -2 -12   36.70    8.60
   1  -2 -12   26.90    6.00
   1  -2 -12   33.90   20.30
  -1   2  12   42.60    8.60
   1   2 -12   33.20   15.40
  -1   2  12   44.80    9.40
   1   2 -12   45.20    8.30
   0  -2 -12 1829.52  111.49
   0  -2  12 1724.73   89.19
   0  -2 -12 1823.42   87.59
   0   2  12 1739.43  113.09
   0   2 -12 1788.92  104.09
   0   2 -12 1744.73   88.19
   0   2  12 1810.92   89.49
   0   2  12 1781.42   88.39
   1  -2  12  674.03   37.90
  -1  -2 -12  635.04   35.20
  -1  -2 -12  701.53   59.09
  -1  -2 -12  628.74   35.50
  -1   2 -12  674.63   52.19
   1   2  12  685.43   36.60
  -1   2 -12  674.53   36.10
   1   2  12  734.53   66.79
   1   2  12  607.44   37.10
   2  -2  12  432.76   26.40
  -2  -2 -12  352.06   23.50
  -2  -2 -12  385.46   23.50
  -2  -2 -12  607.64   66.89
   2   2  12  393.96   25.00
  -2   2 -12  475.55   52.79
   2   2  12  379.36   24.20
  -2   2 -12  416.56   23.80
  -3  -2 -12  423.46   25.60
  -3  -2 -12  384.06   54.19
   3  -2  12  406.86   27.40
  -3   2 -12  379.36   47.90
   3   2  12  426.56   26.10
  -3   2 -12  471.15   31.50
   3   2  12  440.36   26.40
  -4  -2 -12   -5.90   20.10
  -4  -2 -12    2.80    4.40
  -4  -2 -12  -21.30   23.30
   4   2  12    4.40    6.50
  -4   2 -12    8.40    4.60
  -4   2 -12    1.30   14.40
   4   2  12    7.90    5.70
  -5  -2 -12   58.69   31.50
  -5  -2 -12   92.19   12.80
  -5  -2 -12  191.58   82.49
  -5   2 -12  113.09   12.50
   5   2  12  104.69   13.40
   5   2  12  120.79   15.80
  -5   2 -12  100.29   27.70
  -6  -2 -12   47.50   45.60
  -6  -2 -12   14.40    7.30
  -6  -2 -12   65.19   31.00
  -6   2 -12   23.00    6.90
  -6   2 -12   33.50   21.10
   6   2  12   18.40    8.90
  -7  -2 -12    0.60    7.50
  -7  -2 -12   15.70   28.30
  -7  -2 -12   -6.30   44.00
  -7   2 -12   19.90   21.80
   7   2  12    6.40    9.70
  -7   2 -12   15.90    7.10
  -9  -3  12  162.58   38.20
  -9   3  12  137.99   13.10
  -9   3  12  150.68   35.20
  -8  -3  12    8.00   20.30
  -8   3  12   17.70   19.80
  -8   3  12    3.30    5.10
  -8   3  12    0.70   12.00
   8   3 -12    2.40    9.10
   7  -3 -12  157.98   40.20
  -7  -3  12  135.19   16.70
  -7  -3  12  126.69   26.90
  -7   3  12  142.69   27.80
  -7   3  12   99.29   13.10
   7   3 -12  150.28   20.50
  -7   3  12  165.38   26.40
  -6  -3  12    2.70    5.80
  -6  -3  12   -4.10   24.30
   6  -3 -12   -1.00   22.50
  -6  -3  12   -2.50   13.60
  -6   3  12   24.70   11.90
  -6   3  12    2.00   11.60
   6   3 -12   10.50    7.10
  -6   3  12   16.40    7.00
   6   3 -12   19.60   12.50
   5  -3 -12   10.70   21.50
  -5  -3  12   44.60   26.40
   5  -3 -12   37.20    7.50
  -5  -3  12   31.10    7.90
  -5  -3  12   39.20   14.80
  -5   3  12   33.20   11.80
  -5   3  12   32.70   11.90
  -5   3  12   34.80    8.30
   5   3 -12   -8.40   10.10
   5   3 -12   20.00    7.30
  -4  -3  12   19.80   23.30
  -4  -3  12   32.70    6.80
  -4  -3  12   34.10   14.00
   4  -3 -12   56.39   24.40
   4  -3 -12   33.20    6.90
  -4   3  12   43.30   12.30
   4   3 -12   49.40    9.70
  -4   3  12   47.60   11.80
  -4   3  12   55.79   11.00
   4   3 -12   58.59   22.10
  -3  -3  12  130.39   14.80
   3  -3 -12  125.59   32.10
   3  -3 -12   99.39   10.00
  -3  -3  12  111.99   19.90
   3   3 -12  113.29   23.40
  -3   3  12  130.19   16.80
  -3   3  12  124.39   18.70
  -3   3  12  128.29   15.90
   3   3 -12  108.69   14.40
   2  -3 -12   41.20   22.30
  -2  -3  12   60.39   15.40
   2  -3 -12   76.99    9.40
  -2  -3  12   86.59   12.50
   2   3 -12   81.69   20.30
   2   3 -12   50.79    8.90
  -2   3  12   81.89   11.80
   2   3 -12   52.99    9.10
  -2   3  12   63.09   12.50
  -1  -3  12   21.80    6.30
   1  -3 -12   -3.60   15.30
   1  -3 -12   22.00    7.70
   1  -3 -12   17.40    4.90
  -1   3  12   40.40    8.20
   1   3 -12   33.90   14.20
  -1   3  12   34.40    9.40
  -1   3  12   49.50   23.40
   1   3 -12   28.50    7.20
   0  -3 -12  442.56   27.00
   0  -3 -12  676.33   70.49
   0  -3 -12  470.95   26.00
   0  -3  12  450.85   27.70
   0   3  12  568.84   59.69
   0   3 -12  419.46   26.90
   0   3  12  431.36   26.50
   0   3 -12  383.26   38.10
   0   3  12  455.65   32.10
  -1  -3 -12   92.09   11.70
  -1  -3 -12   89.99   10.70
  -1  -3 -12  146.29   34.70
   1  -3  12   97.49   12.80
  -1   3 -12  141.29   26.70
   1   3  12  119.29   31.30
   1   3  12  116.79   13.30
   1   3  12   99.69   14.40
  -1   3 -12  110.79   12.50
  -2  -3 -12  626.74   34.60
  -2  -3 -12  687.73   76.69
   2  -3  12  633.64   35.80
  -2   3 -12  592.74   33.60
   2   3  12  604.24   35.40
   2   3  12  592.44   36.70
  -2   3 -12  566.94   48.20
  -3  -3 -12  716.43   66.09
  -3  -3 -12  744.83   87.79
  -3  -3 -12  749.62   39.60
  -3   3 -12  713.23   55.59
   3   3  12  707.73   39.60
  -3   3 -12  680.83   37.90
   3   3  12  707.33   39.30
  -4  -3 -12   49.10   27.60
  -4  -3 -12    7.60   29.90
  -4  -3 -12   35.80    8.80
   4   3  12   18.40    8.20
  -4   3 -12   36.70    7.30
   4   3  12   24.40    7.00
  -4   3 -12   39.80   18.50
  -5  -3 -12  787.52   45.20
  -5  -3 -12  840.72   75.39
   5   3  12  823.92   44.80
  -5   3 -12  774.12   60.89
  -5   3 -12  773.32   42.10
   5   3  12  816.82   44.50
  -6  -3 -12  -25.40   31.80
  -6  -3 -12   32.30    9.40
  -6  -3 -12   53.29   32.70
   6   3  12   36.60   10.70
  -6   3 -12   38.60   21.50
  -6   3 -12   28.60    7.00
  -7  -3 -12  166.68   60.29
  -7  -3 -12  267.67   24.70
  -7  -3 -12  217.28   47.40
  -7   3 -12  284.77   19.50
   7   3  12  316.47   24.00
  -7   3 -12  176.38   33.90
  -9  -4  12   69.39   30.40
  -9   4  12   53.59    9.10
  -9   4  12   90.69   29.80
  -9   4  12   92.39   24.20
  -8  -4  12   58.89   23.80
   8  -4 -12   12.50   35.70
  -8   4  12   47.60   22.10
  -8   4  12   39.40   16.90
   8   4 -12   23.50   10.60
   7  -4 -12  414.96   58.79
  -7  -4  12  395.36   49.70
  -7  -4  12  389.26   27.00
  -7   4  12  413.86   25.60
  -7   4  12  372.86   41.60
   7   4 -12  376.96   29.60
  -7   4  12  394.26   35.30
  -6  -4  12   38.80    8.60
  -6  -4  12   14.70   26.90
  -6  -4  12   18.40   16.10
   6  -4 -12   13.70   25.70
   6   4 -12   20.40   12.40
   6   4 -12   15.50    7.80
  -6   4  12   38.80   14.90
  -6   4  12   26.90   12.60
  -6   4  12   47.00   10.30
   5  -4 -12  922.21   72.19
  -5  -4  12  758.22   65.89
  -5  -4  12  697.63   42.10
  -5  -4  12  640.44   51.69
   5   4 -12  791.52   50.79
  -5   4  12  732.83   48.30
  -5   4  12  802.82   43.80
   5   4 -12  783.12   44.30
   4  -4 -12  236.98   16.80
  -4  -4  12  254.57   18.90
   4  -4 -12  242.68   43.70
  -4  -4  12  248.08   31.60
   4   4 -12  293.27   28.30
  -4   4  12  242.88   23.70
  -4   4  12  265.47   20.30
   4   4 -12  257.27   20.20
  -3  -4  12  290.27   20.50
   3  -4 -12  285.77   18.50
  -3  -4  12  321.27   29.60
   3  -4 -12  298.27   46.90
   3   4 -12  281.97   21.40
  -3   4  12  322.67   25.30
   3   4 -12  314.37   30.10
  -3   4  12  305.87   22.00
  -3   4  12  276.07   20.70
   3   4 -12  292.97   21.30
  -2  -4  12 1378.06   72.29
   2  -4 -12 1671.33  101.79
  -2  -4  12 1413.66   81.39
   2  -4 -12 1401.96   70.59
   2   4 -12 1354.26   75.89
   2   4 -12 1487.15   84.49
  -2   4  12 1274.17   86.29
  -2   4  12 1394.96   72.19
  -2   4  12 1557.54   77.19
  -1  -4  12   61.59    9.80
   1  -4 -12   20.10   17.70
  -1   4  12   53.29   22.30
   1   4 -12   56.69   17.30
  -1   4  12   82.79   10.80
  -1   4  12   76.89   14.80
   1   4 -12   69.89   10.40
   0  -4  12 1100.49   57.29
   0  -4 -12 1070.19   55.49
   0  -4 -12 1284.67   85.29
   0   4  12 1033.20   59.49
   0   4  12 1055.19   55.89
   0   4 -12 1104.29   57.39
   0   4 -12 1134.69   70.29
  -1  -4 -12  577.74   57.29
   1  -4  12  583.34   34.40
   1   4  12  621.54   36.60
  -1   4 -12  674.93   48.50
   1   4  12  570.34   32.80
  -1   4 -12  536.75   33.20
   1   4  12  601.84   50.89
  -2  -4 -12  221.08   16.50
  -2  -4 -12  309.67   50.69
   2  -4  12  243.78   17.90
  -2   4 -12  194.38   18.70
   2   4  12  208.78   16.20
  -2   4 -12  312.87   41.40
   2   4  12  220.28   19.10
  -3  -4 -12  402.06   26.00
  -3  -4 -12  462.15   63.89
  -3  -4 -12  499.75   70.19
   3   4  12  407.96   27.30
  -3   4 -12  416.16   24.80
   3   4  12  426.56   25.90
  -3   4 -12  409.26   40.70
  -4  -4 -12    4.90   25.00
  -4  -4 -12   -0.70    4.80
  -4  -4 -12  -24.40   25.20
  -4   4 -12   15.70    5.30
   4   4  12   10.30    5.30
  -4   4 -12   16.70   15.70
   4   4  12   -3.00    7.40
  -5  -4 -12   25.80   30.90
  -5  -4 -12   79.29   13.60
  -5  -4 -12   35.00   41.20
   5   4  12   73.49   12.60
  -5   4 -12   87.79   26.10
  -5   4 -12   59.49    8.80
   5   4  12   63.69   18.40
  -6  -4 -12    1.40    7.00
  -6  -4 -12  -19.10   26.00
  -6  -4 -12  -19.30   36.30
  -6   4 -12   21.90   20.50
  -6   4 -12    3.80    4.70
   6   4  12   -3.70    9.20
  -7  -4 -12    2.00   34.10
  -7  -4 -12   -2.30    8.20
  -7  -4 -12   54.29   49.10
   7   4  12   12.10   10.40
  -7   4 -12    5.50   18.70
  -9  -5  12  133.59   36.50
   9  -5 -12  160.48   50.89
  -9   5  12  160.08   36.30
  -9   5  12  139.99   12.40
  -9   5  12  126.89   27.30
  -8  -5  12   21.30   24.60
   8  -5 -12   25.70   36.30
  -8   5  12    5.00   14.70
   8   5 -12   15.10   13.40
  -8   5  12   36.30   32.80
   8   5 -12    2.30   13.10
  -8   5  12    5.70    5.70
  -7  -5  12  150.98   32.60
  -7   5  12  141.99   26.90
  -7   5  12  121.49   14.60
   7   5 -12  111.59   18.40
  -6  -5  12   -6.30   17.70
  -6  -5  12   14.10    6.80
   6   5 -12   28.20    9.90
  -6   5  12   27.60   10.00
  -6   5  12   36.70   15.40
   6   5 -12   18.20   13.10
  -5  -5  12   96.99   23.70
  -5  -5  12   58.29   10.80
   5   5 -12   86.89   18.80
  -5   5  12   36.20   14.40
   5   5 -12   74.09   14.70
  -5   5  12   90.59   14.80
  -4  -5  12   34.00   16.50
  -4  -5  12   87.99   13.10
   4  -5 -12   73.99    9.00
  -4   5  12   85.09   17.10
   4   5 -12   63.19   17.70
  -4   5  12   64.79   15.80
  -3  -5  12   73.59   19.10
   3  -5 -12   82.79    9.70
  -3  -5  12  103.69   12.50
   3   5 -12   82.29   13.20
   3   5 -12   74.29   18.30
  -3   5  12   56.79   10.00
  -3   5  12  103.09   18.60
   3   5 -12   76.99   12.70
  -2  -5  12   19.80   13.20
  -2  -5  12   11.00    6.20
   2  -5 -12    2.80    3.70
  -2   5  12   12.80    5.80
   2   5 -12    2.30    5.20
   2   5 -12   -0.20   10.20
  -2   5  12    7.90    8.50
  -1  -5  12   24.40    7.30
   1  -5 -12   21.60    6.40
  -1   5  12   12.50    4.80
   1   5 -12    7.10    4.90
  -1   5  12   16.10   14.60
   1   5 -12   18.80   13.70
  -1   5  12   15.90    9.50
   0  -5 -12  259.07   47.20
   0  -5 -12  256.27   17.80
   0  -5  12  279.67   19.20
   0   5 -12  260.37   19.30
   0   5  12  237.18   17.60
   0   5 -12  309.47   37.90
   0   5  12  310.47   36.50
   0   5  12  246.18   22.40
  -1  -5 -12   32.80    7.80
   1  -5  12   14.80    6.40
  -1  -5 -12   21.60   21.20
   1   5  12   23.20   17.60
   1   5  12   23.30    9.20
   1   5  12   20.70    6.20
  -1   5 -12   27.00    7.80
  -1   5 -12   35.50   16.90
  -2  -5 -12  461.25   27.20
  -2  -5 -12  444.86   61.39
  -2   5 -12  402.26   26.10
  -2   5 -12  443.36   40.80
   2   5  12  424.46   29.30
   2   5  12  425.16   26.00
  -3  -5 -12  564.54   73.59
  -3  -5 -12  470.55   31.70
  -3  -5 -12  532.45   73.99
   3   5  12  592.74   34.10
  -3   5 -12  536.75   46.20
  -3   5 -12  530.65   30.30
   3   5  12  519.15   33.90
  -4  -5 -12   32.70    8.90
  -4  -5 -12   93.59   39.90
  -4  -5 -12   99.09   37.10
  -4   5 -12   22.00   15.40
   4   5  12   33.80    8.00
  -4   5 -12   28.80    6.50
   4   5  12   37.00   10.90
  -5  -5 -12  434.96   67.99
  -5  -5 -12  505.15   33.30
  -5  -5 -12  510.55   82.69
  -5   5 -12  437.46   27.40
   5   5  12  568.64   33.70
   5   5  12  514.95   31.30
  -6  -5 -12   -1.10   37.20
  -6  -5 -12    2.80   33.00
  -6  -5 -12   10.10    9.50
  -6   5 -12    5.70    4.90
   6   5  12   10.60   11.20
  -6   5 -12    0.70   16.30
  -8  -6  12   17.60   21.80
  -8   6  12   26.90    7.40
  -8   6  12   15.00   16.50
  -7  -6  12  286.67   42.40
   7   6 -12  337.57   29.00
  -7   6  12  377.76   35.80
  -7   6  12  352.16   27.70
   7   6 -12  334.87   30.60
   7   6 -12  318.77   32.20
  -6  -6  12   20.50   18.20
  -6   6  12   28.00   14.10
   6   6 -12   12.20   12.40
  -6   6  12   22.30    9.00
   6   6 -12   15.40    8.70
  -5  -6  12  709.33   42.00
  -5  -6  12  745.93   56.59
   5   6 -12  826.22   51.39
  -5   6  12  662.43   49.30
   5   6 -12  708.43   43.80
  -5   6  12  731.63   43.10
  -4  -6  12  272.57   20.80
  -4  -6  12  301.27   38.10
  -4   6  12  232.58   31.20
  -4   6  12  266.47   21.10
   4   6 -12  278.17   22.30
   4   6 -12  327.77   36.80
   3  -6 -12  343.97   21.90
  -3  -6  12  395.06   42.10
  -3  -6  12  423.36   32.90
   3   6 -12  385.46   34.20
  -3   6  12  371.46   24.10
  -3   6  12  344.87   29.90
   3   6 -12  339.47   25.80
   3   6 -12  347.77   25.50
  -2  -6  12 1213.18   64.89
   2  -6 -12 1199.18   62.99
  -2  -6  12 1271.07   75.79
   2   6 -12 1273.57   75.79
  -2   6  12 1288.37   64.19
   2   6 -12 1244.68   66.39
  -2   6  12 1264.07   71.09
  -1  -6  12   -1.10    4.50
   1  -6 -12    5.00    4.00
  -1  -6  12   -3.40   12.80
   1   6 -12    1.60    9.50
   1   6 -12   -0.30    4.80
  -1   6  12   -1.80    3.50
  -1   6  12    7.50    9.10
   0  -6  12 1242.18   63.69
   0  -6 -12 1245.78   63.09
   0   6  12 1219.88   62.49
   0   6  12 1156.08   69.99
   0   6  12 1215.58   68.69
   0   6 -12 1289.17   76.99
   0   6 -12 1206.88   64.19
  -1  -6 -12  279.47   50.99
  -1  -6 -12  247.78   18.40
   1   6  12  239.88   23.00
  -1   6 -12  240.28   19.00
   1   6  12  301.17   35.10
  -1   6 -12  270.07   36.70
   1   6  12  237.78   17.50
  -2  -6 -12  109.59   35.40
  -2  -6 -12  342.77   54.59
   2   6  12  184.28   15.30
  -2   6 -12  217.18   33.70
   2   6  12  202.48   20.30
  -2   6 -12  200.08   16.30
  -3  -6 -12  255.47   53.69
  -3  -6 -12  243.98   19.60
  -3  -6 -12  258.27   50.19
  -3   6 -12  217.28   16.60
   3   6  12  227.98   17.60
   3   6  12  218.88   21.20
  -3   6 -12  199.68   33.20
  -4  -6 -12  -11.50   28.10
  -4  -6 -12    4.00    6.40
  -4  -6 -12  -24.90   23.00
  -4   6 -12   21.50   15.50
  -4   6 -12    4.30    4.70
   4   6  12    1.30    5.40
   4   6  12   -5.70    9.40
  -5  -6 -12   75.09   39.60
  -5  -6 -12   42.20   11.80
  -5  -6 -12   22.20   41.10
   5   6  12   47.80   12.50
  -5   6 -12   40.10    7.10
   5   6  12   41.50    9.80
  -5   6 -12   42.60   21.60
  -6  -6 -12    6.40   10.40
  -6  -6 -12    0.30   38.30
  -6  -6 -12  -23.10   33.10
  -6   6 -12    2.50   17.80
   6   6  12    1.20   11.10
  -8  -7  12   -9.10   22.10
  -8   7  12   10.60   17.10
  -8   7  12    2.10    5.60
  -7  -7  12   67.39   28.00
  -7   7  12   82.69   13.10
   7   7 -12   61.29   14.80
  -7   7  12   80.79   22.70
   7   7 -12   40.70   14.20
   7   7 -12  116.19   23.40
  -6  -7  12   -7.30   15.90
  -6   7  12   -4.70    7.50
   6   7 -12    9.20    9.60
   6   7 -12    4.60    8.90
  -6   7  12   -3.00   11.40
   6   7 -12    6.30   13.30
  -5  -7  12   52.19   23.10
  -5   7  12   45.60   11.40
   5   7 -12   62.39   18.30
  -5   7  12   63.79   19.60
  -4  -7  12   10.50    6.40
  -4  -7  12    1.00   15.20
   4   7 -12   36.20   16.20
  -4   7  12   13.40    7.40
   4   7 -12   36.50   10.40
  -3  -7  12   -2.10   12.70
  -3  -7  12   35.70    9.40
  -3   7  12   21.80   12.40
  -3   7  12   23.30    6.90
   3   7 -12    9.30   11.70
   3   7 -12    8.30    6.30
  -2  -7  12   73.39   12.40
  -2  -7  12   88.59   22.80
   2   7 -12   75.19   13.30
  -2   7  12   52.39   16.00
  -2   7  12   57.79    9.70
   2   7 -12   64.29   19.10
  -1  -7  12    5.10    5.10
   1  -7 -12    2.00    4.70
  -1  -7  12   -6.80   13.40
   1   7 -12   13.00    7.00
   1   7 -12   27.70   14.60
  -1   7  12   21.10    6.40
  -1   7  12   18.80   11.30
   0  -7  12  389.56   25.50
   0  -7 -12  379.86   25.50
   0   7  12  370.56   31.00
   0   7  12  386.36   24.50
   0   7 -12  466.05   39.40
  -1  -7 -12   30.80    8.40
   1   7  12   18.20   14.70
  -1   7 -12   34.30   16.80
   1   7  12   35.70   13.10
  -1   7 -12   21.40    7.20
  -2  -7 -12  343.47   56.89
  -2  -7 -12  340.27   60.09
  -2  -7 -12  319.87   24.00
   2   7  12  332.77   22.40
  -2   7 -12  333.87   43.70
   2   7  12  340.47   27.60
  -2   7 -12  316.87   22.50
  -3  -7 -12  464.85   70.39
  -3  -7 -12  427.96   29.30
  -3  -7 -12  398.16   66.39
  -3   7 -12  468.65   44.00
  -3   7 -12  416.46   26.30
   3   7  12  419.96   27.10
   3   7  12  408.86   30.90
  -4  -7 -12   38.60   37.70
  -4  -7 -12   19.40    8.50
  -4   7 -12   25.30    6.90
  -4   7 -12   53.39   22.10
   4   7  12   38.10   13.30
  -5  -7 -12  398.96   73.79
  -5  -7 -12  331.77   28.30
  -5  -7 -12  265.87   57.59
  -5   7 -12  326.57   43.80
  -5   7 -12  308.97   20.50
   5   7  12  418.76   29.80
  -7  -8  12  231.78   42.20
  -7   8  12  287.27   21.90
  -7   8  12  198.28   33.30
   7   8 -12  235.58   32.50
  -6  -8  12   37.40   23.50
   6   8 -12   22.50   12.00
   6   8 -12   12.30   11.50
  -6   8  12   35.60   17.90
   6   8 -12   32.10   17.50
  -6   8  12   31.80   11.90
  -5  -8  12  410.56   52.09
   5   8 -12  485.95   37.00
   5   8 -12  523.65   43.30
  -5   8  12  486.05   42.00
  -5   8  12  535.25   33.70
   5   8 -12  482.85   34.90
  -4  -8  12  321.87   43.90
   4   8 -12  280.97   25.00
  -4   8  12  312.97   23.50
  -4   8  12  370.06   34.00
   4   8 -12  321.97   27.80
   4   8 -12  314.67   38.30
   3   8 -12  208.58   17.50
   3   8 -12  205.88   20.50
  -3   8  12  233.58   18.40
  -3   8  12  228.38   31.00
   3   8 -12  226.18   32.40
  -2  -8  12  995.90   67.39
  -2  -8  12  975.30   54.39
   2  -8 -12 1022.10   53.79
   2   8 -12  964.70   55.89
  -2   8  12 1026.40   62.89
   2   8 -12 1029.00   66.69
  -1  -8  12    4.30    5.90
   1  -8 -12    0.90    5.10
  -1  -8  12   -9.30   14.70
  -1   8  12   14.40   11.80
   1   8 -12   11.50    7.10
  -1   8  12    3.60    4.60
   0  -8 -12  741.73   44.60
   0  -8  12  829.22   58.19
   0   8 -12  805.42   45.70
   0   8 -12  854.41   58.79
   0   8  12  770.62   43.10
   0   8  12  767.92   50.99
  -1  -8 -12  345.87   23.50
   1   8  12  252.17   29.60
   1   8  12  270.47   20.00
  -1   8 -12  268.37   21.30
   1   8  12  260.37   27.10
  -1   8 -12  270.57   37.50
  -2  -8 -12  118.59   15.40
  -2  -8 -12  108.89   35.10
  -2   8 -12  105.89   24.60
   2   8  12  119.49   14.30
   2   8  12  119.29   19.70
  -2   8 -12  100.89   13.90
  -3  -8 -12  179.08   52.09
  -3  -8 -12  197.98   50.59
   3   8  12  148.19   16.30
   3   8  12  131.19   19.80
  -3   8 -12  173.98   32.70
  -3   8 -12  138.39   17.90
  -4  -8 -12   10.40   36.60
  -4  -8 -12   17.50   10.50
  -4  -8 -12    1.80   32.80
  -4   8 -12    4.80    5.00
   4   8  12    1.40   10.20
  -4   8 -12    3.00   17.00
  -5  -8 -12   29.60   37.10
  -5  -8 -12   41.10   45.40
   5   8  12   22.80   11.80
  -5   8 -12   42.00   22.30
  -6  -9  12   14.00   21.50
   6   9 -12    7.30   16.80
  -6   9  12   -0.90   14.60
   6   9 -12   -4.80    8.50
  -6   9  12    9.20   10.50
  -5  -9  12   23.70   24.00
   5   9 -12   35.50   22.90
   5   9 -12   15.20   11.10
   5   9 -12   15.60   11.70
  -5   9  12   23.10   16.90
  -5   9  12    8.10    8.30
   5   9 -12    9.40   26.80
  -4  -9  12   21.90   19.20
   4   9 -12   32.90   10.30
   4   9 -12   13.30   15.50
  -4   9  12   24.60    8.70
  -4   9  12   31.60   16.00
   4   9 -12   34.00   10.50
   4   9 -12   24.70   12.50
  -3  -9  12   20.50   19.90
  -3   9  12    2.20   12.20
  -3   9  12   18.20    7.50
   3   9 -12   16.30    7.90
   3   9 -12   14.00    9.90
   3   9 -12   23.20    8.90
   3   9 -12   -0.40   14.10
  -2  -9  12   54.29   23.20
   2   9 -12   19.00   16.00
  -2   9  12   29.30   15.20
   2   9 -12   15.80    8.90
  -2   9  12   20.70    7.20
   2   9 -12   37.90   10.90
   1  -9 -12   49.10   10.70
  -1  -9  12   79.69   23.90
   1   9 -12   68.69   20.70
  -1   9  12   47.70    9.20
  -1   9  12   51.19   17.00
   1   9 -12   47.70   10.80
   0  -9  12  195.58   36.00
   0  -9 -12  228.18   20.80
   0   9  12  260.87   19.30
   0   9 -12  312.27   40.00
   0   9 -12  259.37   21.60
   0   9  12  193.78   27.30
  -1  -9 -12    2.10    6.70
   1   9  12   36.90   15.60
  -1   9 -12   -1.00   14.40
   1   9  12   16.60    6.40
  -1   9 -12   10.10    7.70
  -2  -9 -12  185.78   24.10
  -2  -9 -12  209.48   49.00
  -2   9 -12  207.88   34.90
  -2   9 -12  190.28   22.10
   2   9  12  219.28   18.30
   2   9  12  222.98   26.90
  -3  -9 -12  255.27   55.79
  -3   9 -12  232.58   19.20
  -3   9 -12  169.98   31.90
   3   9  12  234.48   19.60
   3   9  12  211.28   26.60
  -3   9 -12  196.98   17.90
  -4  -9 -12   72.09   42.80
  -4   9 -12    6.90   18.60
   4   9  12   19.90   12.70
  -4   9 -12   29.50    8.30
  -4   9 -12   36.00    8.00
   5  10 -12  340.67   26.80
  -5  10  12  340.57   45.40
   5  10 -12  267.87   39.00
  -5  10  12  357.56   27.50
  -4 -10  12  127.49   33.40
   4  10 -12  148.29   30.70
  -4  10  12  161.48   29.40
   4  10 -12  113.89   17.60
   4  10 -12  119.89   16.60
  -4  10  12  156.58   27.60
   4  10 -12  153.58   22.60
  -3 -10  12  128.99   31.10
   3  10 -12   92.09   18.90
   3  10 -12  180.98   31.40
  -3  10  12  182.18   31.30
  -3  10  12  139.89   16.80
   3  10 -12   93.99   16.10
   3  10 -12  112.69   14.80
  -2 -10  12  571.74   52.39
  -2  10  12  550.84   33.10
   2  10 -12  491.55   35.90
   2  10 -12  479.35   36.60
  -2  10  12  602.14   45.50
   2  10 -12  575.44   49.50
  -1 -10  12    6.50   19.00
   1  10 -12    2.90    7.10
   1  10 -12    3.60   15.40
  -1  10  12    3.60    5.40
  -1  10  12    2.10   12.60
   1  10 -12   -2.80    7.10
   0 -10  12  444.36   50.09
   0  10  12  425.66   27.80
   0  10  12  414.76   37.40
   0  10 -12  377.36   29.80
   0  10 -12  482.45   45.50
   0  10 -12  420.76   30.40
   1 -10  12  152.78   31.70
   1  10  12  172.88   16.40
  -1  10 -12  123.89   28.40
  -1  10 -12  135.99   17.80
   1  10  12  167.88   27.40
  -1  10 -12  151.58   18.90
  -2  10 -12   75.99   12.60
  -2  10 -12   68.39   12.70
  -2  10 -12   81.29   24.60
   2  10  12   55.29   17.50
   2  10  12   92.39   13.70
  -2 -11  12   -4.50   20.70
  -2  11  12    7.90    6.50
   2  11 -12   13.40   16.40
   2  11 -12    5.40   10.00
   2  11 -12   12.40   10.50
  -2  11  12    1.20   13.80
  -1 -11  12   10.90   21.10
  -1  11  12   19.00    8.00
  -1  11  12   19.10   14.90
   1  11 -12   -3.50    7.80
   1  11 -12   18.60   10.10
   1  11 -12    1.00   15.30
   0 -11  12   69.99   26.40
   0  11  12   81.79   13.40
   0  11  12   84.89   20.70
   0  11 -12   83.79   14.40
   0  11 -12  156.08   31.70
   0  11 -12   75.69   14.30
 -10   0  13   27.30   29.80
  -9   0  13  208.48   18.00
  -9   0  13  167.48   36.30
  -8   0  13   14.20   19.30
  -8   0  13   10.90    6.90
   7   0 -13  679.63   55.89
  -7   0  13  621.74   36.60
  -7   0  13  598.14   48.70
   6   0 -13  574.54   52.39
  -6   0  13  576.74   33.30
  -6   0  13  476.05   41.20
   6   0 -13  556.94   41.90
  -5   0  13  458.35   28.20
  -5   0  13  406.76   31.90
  -5   0  13  417.56   35.10
   5   0 -13  438.66   28.50
  -4   0  13  981.70   52.79
  -4   0  13  978.80   58.09
   4   0 -13  979.60   52.59
   4   0 -13 1098.89   73.39
  -4   0  13  887.31   54.69
   3   0 -13   27.20    7.20
   3   0 -13   62.99   24.20
  -3   0  13   15.70   11.60
   3   0 -13   30.60    8.50
  -3   0  13   17.90    6.20
   2   0 -13 1619.34   82.49
  -2   0  13 1616.04   80.59
  -2   0  13 1484.75   79.39
   2   0 -13 1511.85   78.59
   2   0 -13 1648.14  100.59
   1   0 -13  465.65   53.89
  -1   0  13  355.76   23.60
  -1   0  13  367.66   24.90
   1   0 -13  358.06   23.50
   1   0 -13  385.06   23.30
   0   0 -13  213.28   38.50
   0   0  13  158.48   14.80
   0   0 -13  157.48   12.90
   0   0 -13  170.78   12.60
  -1   0 -13  566.94   32.00
  -1   0 -13  573.44   52.99
   1   0  13  582.74   34.40
  -2   0 -13   13.40   19.30
  -2   0 -13   26.30    6.50
   2   0  13   23.10    7.00
   3   0  13  100.89   15.00
  -3   0 -13  145.89   33.70
  -3   0 -13  108.39   12.90
  -4   0 -13    7.10    4.60
   4   0  13    0.70    8.30
  -4   0 -13   10.00   20.60
  -5   0 -13   20.80   22.60
  -5   0 -13    3.90    5.60
  -6   0 -13   13.60   22.60
  -6   0 -13   -0.20    5.70
  -7   0 -13   -3.80   23.20
  -7   0 -13   10.10    8.00
 -10  -1  13   -2.40   27.60
 -10   1  13   19.80   27.90
  -9  -1  13  109.29   33.30
  -9  -1  13   92.69   13.50
  -9   1  13   82.09   30.80
  -9   1  13  104.79   13.50
  -8  -1  13   10.60    6.80
  -8  -1  13   15.80   19.60
  -8   1  13   23.40    7.90
  -8   1  13   24.50   19.60
  -7  -1  13   56.99   20.90
  -7  -1  13   45.80    9.80
   7  -1 -13   55.69   28.50
  -7   1  13   28.00    7.90
  -7   1  13   34.40   14.60
  -7   1  13   24.20   19.20
   7   1 -13   25.30   10.70
   6  -1 -13    7.30    7.20
  -6  -1  13   19.50   15.10
   6  -1 -13   28.70   27.10
  -6  -1  13    6.60    5.60
  -6   1  13    1.00    8.20
  -6   1  13    7.50    6.20
   6   1 -13  -20.50   15.50
   6   1 -13   17.20    8.00
  -6   1  13   10.50   12.20
  -5  -1  13    7.40    5.70
   5  -1 -13    4.10    5.40
  -5  -1  13   18.20   13.30
   5  -1 -13    2.30   19.80
  -5   1  13    5.10    8.40
  -5   1  13   11.70   11.40
   5   1 -13    9.50   32.40
   5   1 -13    8.80    6.40
  -5   1  13    8.70    6.50
  -4  -1  13   33.30   10.60
   4  -1 -13   45.70   23.60
  -4  -1  13   29.50   12.30
  -4  -1  13   51.49   28.40
   4  -1 -13   35.00    7.40
  -4  -1  13   26.50    6.90
   4   1 -13   28.50   19.00
  -4   1  13   60.79   25.20
  -4   1  13   28.20    7.90
  -4   1  13   33.90   10.60
   4   1 -13   35.80    9.00
   3  -1 -13   34.10    7.20
  -3  -1  13   30.80    9.40
   3  -1 -13   39.40   21.30
  -3  -1  13   52.09   14.90
  -3  -1  13   41.50    9.20
  -3   1  13   46.70    9.40
   3   1 -13   51.19   19.80
   3   1 -13   43.70    9.30
   3   1 -13   36.80    8.90
  -3   1  13   60.19   11.90
  -3   1  13   53.09   14.30
  -2  -1  13  813.42   47.60
  -2  -1  13  888.11   48.70
   2  -1 -13  774.92   48.10
   2  -1 -13  930.81   69.79
   2  -1 -13  905.81   47.00
  -2   1  13  950.50   49.50
   2   1 -13  939.61   66.29
  -2   1  13  924.01   49.20
   2   1 -13  885.31   47.30
   1  -1 -13   97.29   14.50
  -1  -1  13  112.39   15.40
   1  -1 -13   84.99   28.20
  -1   1  13   97.59   13.50
  -1   1  13   89.59   13.90
   1   1 -13  102.89   13.30
   1   1 -13  102.49   11.90
   1   1 -13   89.09   26.20
   0  -1 -13  690.43   38.40
   0  -1 -13  704.53   60.69
   0  -1  13  731.03   41.20
   0  -1 -13  738.03   38.30
   0   1 -13  722.73   39.20
   0   1  13  692.03   39.60
   0   1 -13  692.93   56.59
   0   1  13  726.13   40.70
  -1  -1 -13  732.83   38.40
  -1  -1 -13  722.53   39.30
   1  -1  13  745.23   42.00
  -1  -1 -13  785.82   63.89
  -1   1 -13  648.74   57.69
  -1   1 -13  750.32   39.60
   1   1  13  729.83   41.40
   1   1  13  723.23   40.30
   2  -1  13  146.19   16.10
  -2  -1 -13  149.69   12.10
  -2  -1 -13  190.98   41.30
   2   1  13  134.89   15.00
  -2   1 -13  105.69   28.30
   2   1  13  159.18   16.80
  -2   1 -13  132.69   11.70
  -3  -1 -13 1367.76   65.89
   3  -1  13 1215.38   67.39
  -3  -1 -13 1350.36   92.69
  -3   1 -13 1226.48   86.19
  -3   1 -13 1256.97   64.99
   3   1  13 1323.27   67.19
  -4  -1 -13  107.19   12.30
  -4  -1 -13  102.59   31.80
   4   1  13   91.79   13.80
  -4   1 -13  107.19   12.70
  -4   1 -13   80.69   27.20
  -5  -1 -13  394.46   26.20
  -5  -1 -13  345.57   54.89
  -5   1 -13  370.46   50.29
  -5   1 -13  425.16   25.70
  -6  -1 -13  129.89   57.59
  -6  -1 -13  207.98   42.90
  -6  -1 -13  194.58   17.80
  -6   1 -13  181.18   16.50
  -6   1 -13  178.68   35.90
  -7  -1 -13   35.70   50.09
  -7  -1 -13   22.20   28.10
  -7  -1 -13   32.10   12.00
  -7   1 -13   26.60    8.50
  -7   1 -13   11.40   23.30
   7   1  13   34.10    9.70
  -9  -2  13  199.98   37.70
  -9   2  13  176.08   35.10
  -9   2  13  144.59   18.70
  -8  -2  13  -20.20   16.60
  -8  -2  13   20.40    8.70
  -8   2  13   -1.00    5.40
  -8   2  13   14.20   19.80
  -7  -2  13  663.03   39.50
  -7  -2  13  645.24   52.69
  -7   2  13  770.02   64.99
  -7   2  13  673.73   38.70
  -7   2  13  676.33   50.79
   7   2 -13  652.63   49.50
   6  -2 -13  625.44   59.49
   6  -2 -13  536.65   39.00
  -6  -2  13  402.96   56.69
  -6  -2  13  492.65   31.60
  -6  -2  13  535.75   43.20
  -6   2  13  557.94   40.40
   6   2 -13  527.85   34.10
   6   2 -13  509.65   43.20
  -6   2  13  503.15   38.20
  -6   2  13  519.85   32.10
   5  -2 -13  413.96   55.19
   5  -2 -13  475.05   34.70
  -5  -2  13  457.65   38.20
  -5  -2  13  404.26   27.00
  -5  -2  13  394.06   52.19
  -5   2  13  438.16   28.30
   5   2 -13  368.66   50.39
  -5   2  13  408.16   31.90
  -5   2  13  403.36   33.30
   5   2 -13  427.66   28.60
  -4  -2  13 1048.70   64.09
   4  -2 -13  972.20   54.59
  -4  -2  13 1042.30   56.09
   4  -2 -13 1152.48   80.89
   4   2 -13 1024.90   56.89
   4   2 -13 1086.19   70.29
  -4   2  13 1041.50   59.89
  -4   2  13 1091.09   57.29
  -4   2  13 1106.39   60.29
  -3  -2  13   -8.30    8.80
   3  -2 -13    4.40    4.10
   3  -2 -13   41.70   20.40
  -3  -2  13    2.10    4.40
   3   2 -13  -10.30   10.50
   3   2 -13   -0.50    5.30
  -3   2  13   -1.80    4.20
  -3   2  13   -0.60    9.50
   3   2 -13    4.40    4.80
  -3   2  13   -3.70    6.40
  -2  -2  13 1730.03   87.29
   2  -2 -13 1680.73   84.99
   2  -2 -13 1595.04   92.99
   2  -2 -13 1723.03  109.69
   2   2 -13 1668.93   85.19
   2   2 -13 1722.63   87.19
  -2   2  13 1793.12   88.89
   2   2 -13 1747.03  102.79
  -2   2  13 1889.21   91.39
  -1  -2  13  750.82   40.00
   1  -2 -13  786.92   62.59
   1  -2 -13  677.63   37.00
   1  -2 -13  682.63   38.60
   1   2 -13  623.44   52.69
  -1   2  13  673.53   39.90
   1   2 -13  701.13   39.50
  -1   2  13  658.63   64.69
  -1   2  13  616.64   38.30
   0  -2 -13  229.08   16.70
   0  -2 -13  197.78   15.40
   0  -2  13  234.68   18.30
   0  -2 -13  283.97   47.50
   0   2  13  243.08   18.70
   0   2 -13  218.18   16.80
   0   2  13  247.58   47.50
   0   2  13  245.18   17.70
   0   2 -13  237.98   35.70
   1  -2  13  820.52   45.50
  -1  -2 -13  776.02   42.50
  -1  -2 -13  855.91   69.19
  -1  -2 -13  757.32   42.50
   1   2  13  781.32   44.70
  -1   2 -13  841.72   43.50
   1   2  13  811.72   44.20
  -1   2 -13  948.51   63.69
  -2  -2 -13    6.80    4.40
  -2  -2 -13    4.30    6.20
  -2  -2 -13   10.60   19.30
   2  -2  13   13.60    7.90
  -2   2 -13    8.10    4.30
  -2   2 -13    2.50   14.30
   2   2  13    0.70    4.30
   2   2  13  -11.20    5.90
  -3  -2 -13  170.28   14.40
   3  -2  13  190.08   20.80
  -3  -2 -13  161.68   38.50
  -3   2 -13  155.48   13.40
   3   2  13  169.58   15.40
   3   2  13  174.78   19.40
  -3   2 -13  215.38   38.00
  -4  -2 -13   37.40    8.10
  -4  -2 -13   47.80   29.00
  -4   2 -13   34.60    7.30
   4   2  13   56.19   10.70
  -4   2 -13   60.09   24.80
  -5  -2 -13   13.40   26.20
  -5  -2 -13   29.30   38.30
  -5  -2 -13    3.70    6.20
   5   2  13   11.30    8.10
  -5   2 -13    7.30    4.80
  -5   2 -13    6.60   19.60
  -6  -2 -13    2.40    7.20
  -6  -2 -13   -8.70   26.40
  -6  -2 -13    6.80   39.30
   6   2  13  -12.50    8.50
  -6   2 -13    6.30   19.70
  -7  -2 -13   17.90   48.20
  -7  -2 -13   11.40   29.50
  -7  -2 -13    3.90    8.50
   7   2  13   16.50   10.00
  -7   2 -13   11.10   31.00
  -7   2 -13   21.30    8.10
  -9  -3  13  100.49   31.00
  -9   3  13  107.29   13.10
  -9   3  13  136.69   33.00
  -8  -3  13   42.50   23.10
   8  -3 -13   45.80   32.60
  -8   3  13   10.20   13.50
  -8   3  13    7.70   20.20
  -8   3  13    0.00    5.50
   8   3 -13   -1.10    8.70
  -7  -3  13   15.80   21.30
   7  -3 -13   -2.10   27.40
  -7  -3  13    8.20    6.40
  -7   3  13   22.60   18.20
  -7   3  13    5.30    6.70
  -7   3  13  -12.40   11.50
   7   3 -13   15.10    9.40
  -6  -3  13  -21.20   26.20
  -6  -3  13   18.20    8.00
  -6  -3  13   33.20   17.60
   6  -3 -13   34.50   27.20
   6   3 -13   13.30    7.70
  -6   3  13    9.10   10.50
  -6   3  13   35.20   17.00
  -6   3  13   23.70    7.90
   5  -3 -13   46.90   28.00
  -5  -3  13   36.90   16.80
   5  -3 -13   30.40    6.80
  -5  -3  13   32.80    8.00
   5   3 -13   25.20   15.20
  -5   3  13   39.20    9.20
  -5   3  13   19.90   12.10
  -5   3  13   61.29   15.00
   5   3 -13   43.50   11.10
  -4  -3  13   17.20   12.40
   4  -3 -13   -5.30   19.30
  -4  -3  13   18.10    7.10
   4  -3 -13    4.70    4.00
  -4   3  13   15.70   10.10
   4   3 -13    8.50   14.70
  -4   3  13   15.90    7.30
  -4   3  13    5.50    7.30
   4   3 -13    1.10    5.40
   3  -3 -13   57.99    8.30
   3  -3 -13   78.39   28.20
  -3  -3  13   73.79   18.20
  -3  -3  13   49.90   10.00
  -3   3  13   46.30   12.40
   3   3 -13   49.40   18.30
  -3   3  13   35.70    9.00
  -3   3  13   47.20   12.70
   3   3 -13   67.99   10.90
  -2  -3  13  538.05   32.80
   2  -3 -13  543.65   30.70
   2  -3 -13  637.64   57.79
  -2   3  13  540.55   34.90
   2   3 -13  524.75   32.80
   2   3 -13  545.65   45.30
  -2   3  13  550.94   32.80
  -1  -3  13  108.29   14.10
   1  -3 -13   99.09   11.10
   1  -3 -13  103.09   30.60
  -1   3  13  109.89   13.90
  -1   3  13  102.89   41.90
   1   3 -13  164.08   29.80
   1   3 -13   97.39   12.30
  -1   3  13  101.09   15.70
   0  -3  13  449.76   28.30
   0  -3 -13  471.75   59.19
   0  -3 -13  452.95   26.40
   0   3  13  433.86   55.99
   0   3  13  455.55   29.80
   0   3 -13  426.96   41.00
   0   3 -13  422.16   27.20
   1  -3  13  908.11   48.30
  -1  -3 -13  864.71   46.00
  -1  -3 -13  935.61   73.99
   1   3  13  822.82   46.50
  -1   3 -13  896.51   63.69
  -1   3 -13  880.11   46.70
   1   3  13  843.12   48.70
  -2  -3 -13   91.59   30.00
  -2  -3 -13   52.99    8.30
   2  -3  13   92.39   13.50
  -2   3 -13   83.49   24.70
   2   3  13   63.09   12.00
   2   3  13   81.19   11.70
  -2   3 -13   97.59   12.10
  -3  -3 -13 1726.23   83.79
  -3  -3 -13 1603.04  111.89
  -3   3 -13 1689.23   82.29
   3   3  13 1602.64   83.59
   3   3  13 1633.24   83.89
  -3   3 -13 1705.83  102.49
  -4  -3 -13  127.79   45.80
  -4  -3 -13   73.19   31.70
  -4  -3 -13  104.29   14.40
   4   3  13  112.49   13.60
  -4   3 -13   94.39   11.80
  -4   3 -13  135.39   29.70
   4   3  13   92.59   13.60
  -5  -3 -13  429.16   79.59
  -5  -3 -13  589.14   72.39
  -5   3 -13  410.36   50.39
   5   3  13  504.25   30.30
   5   3  13  454.05   30.10
  -5   3 -13  422.96   26.80
  -6  -3 -13  277.17   54.59
  -6  -3 -13  248.48   21.40
  -6  -3 -13  264.57   69.39
  -6   3 -13  160.08   48.00
  -6   3 -13  218.48   17.20
   6   3  13  207.48   20.60
  -7  -3 -13   52.39   14.40
  -7  -3 -13   10.50   35.20
  -7  -3 -13   70.59   55.09
   7   3  13   26.00   12.70
  -7   3 -13   22.40   20.70
  -7   3 -13   46.00    9.50
  -9  -4  13  161.88   37.20
  -9   4  13  203.28   16.10
  -9   4  13  170.08   37.00
  -9   4  13  169.88   30.20
   8  -4 -13   19.40   35.10
  -8  -4  13    6.60   20.30
  -8   4  13    4.70   19.20
   8   4 -13    7.20   11.20
  -8   4  13   -4.30   12.50
  -7  -4  13  398.36   27.00
   7  -4 -13  373.46   57.69
  -7  -4  13  336.77   44.70
  -7   4  13  367.36   34.90
  -7   4  13  379.76   25.80
   7   4 -13  362.86   29.50
  -7   4  13  513.05   65.59
  -6  -4  13  382.56   27.40
   6  -4 -13  399.56   60.59
  -6  -4  13  392.26   39.90
  -6   4  13  380.16   34.20
   6   4 -13  433.86   36.60
   6   4 -13  412.96   30.20
  -6   4  13  453.35   28.70
  -6   4  13  405.66   33.40
  -5  -4  13  159.38   27.60
   5  -4 -13  192.18   40.60
  -5  -4  13  185.88   16.40
  -5   4  13  169.18   24.90
   5   4 -13  178.48   26.70
   5   4 -13  144.79   17.70
  -5   4  13  164.38   20.70
  -5   4  13  190.38   22.50
  -4  -4  13  813.72   47.00
   4  -4 -13  910.91   74.89
   4  -4 -13  806.12   46.60
  -4  -4  13  906.41   58.09
  -4   4  13  929.01   49.30
  -4   4  13  834.62   52.19
   4   4 -13  792.12   48.10
  -4   4  13  856.21   48.50
   4   4 -13  911.21   58.29
   3  -4 -13   33.00   24.30
  -3  -4  13   23.80    7.10
  -3  -4  13   -4.00   10.60
   3  -4 -13   18.70    5.10
  -3   4  13   22.40    8.50
  -3   4  13   33.40   11.60
   3   4 -13   25.60    8.90
   3   4 -13   23.00    8.00
   3   4 -13   43.80   16.00
  -3   4  13   33.70   10.40
   2  -4 -13 1182.58   62.29
  -2  -4  13 1264.07   74.49
   2  -4 -13 1296.37   91.69
  -2  -4  13 1280.17   70.89
  -2   4  13 1226.78   64.39
  -2   4  13 1273.97   68.29
   2   4 -13 1224.48   68.29
   2   4 -13 1241.28   77.19
  -2   4  13 1174.88   82.09
   1  -4 -13  720.83   61.99
   1  -4 -13  604.74   34.80
  -1  -4  13  587.34   34.60
   1   4 -13  568.14   47.10
  -1   4  13  594.54   37.50
  -1   4  13  587.74   53.49
   1   4 -13  564.04   34.60
  -1   4  13  536.85   34.10
   0  -4 -13  134.49   11.90
   0  -4  13  144.09   14.10
   0  -4 -13  152.68   36.60
   0   4 -13  128.19   15.10
   0   4  13  123.49   29.80
   0   4  13  161.08   19.50
   0   4 -13  170.48   30.60
   0   4  13  150.58   13.00
  -1  -4 -13  548.15   67.69
   1  -4  13  628.54   38.80
  -1   4 -13  614.24   49.70
  -1   4 -13  592.74   34.50
   1   4  13  584.14   37.20
   1   4  13  589.64   34.20
  -2  -4 -13   29.90   24.20
  -2  -4 -13    2.00    4.50
  -2   4 -13    5.60   13.60
   2   4  13  -15.60    6.30
   2   4  13    1.00    4.50
  -2   4 -13    1.00    4.40
  -3  -4 -13  137.09   38.70
  -3  -4 -13   93.59   13.20
  -3   4 -13   69.49   22.00
  -3   4 -13  128.79   13.30
   3   4  13   87.19   13.70
   3   4  13   99.39   13.00
  -4  -4 -13   38.40    9.10
  -4  -4 -13   63.39   33.80
  -4  -4 -13   -1.70   28.80
  -4   4 -13   37.20    7.60
   4   4  13   43.50   11.80
   4   4  13   59.09   10.30
  -4   4 -13   65.99   24.80
  -5  -4 -13   19.30    8.80
  -5  -4 -13    6.20   29.00
  -5  -4 -13   18.40   38.90
  -5   4 -13   18.60    6.70
  -5   4 -13   -0.60   25.40
   5   4  13   22.50   10.20
   5   4  13    4.60    6.60
  -6  -4 -13    1.60    7.40
  -6  -4 -13   14.10   32.60
  -6  -4 -13   -8.50   35.70
  -6   4 -13   -2.70    4.60
   6   4  13  -14.10   11.00
  -6   4 -13   -5.60   17.20
  -9  -5  13   71.59   31.80
   9  -5 -13   96.29   49.00
  -9   5  13   70.69   10.40
  -9   5  13   82.09   23.70
  -9   5  13   80.89   31.70
   8  -5 -13  -11.20   34.60
  -8  -5  13  -10.20   20.30
  -8   5  13   -5.60   12.50
   8   5 -13    3.80    9.90
   8   5 -13   -1.70   11.00
  -8   5  13    8.70   21.60
  -8   5  13    5.60    6.50
   7  -5 -13   15.10   32.30
  -7  -5  13   16.70   21.60
   7   5 -13   21.80   10.30
  -7   5  13   18.00    8.10
  -7   5  13   15.30   14.20
  -6  -5  13   19.50   18.80
  -6  -5  13   24.60    8.30
   6   5 -13   39.30   17.10
  -6   5  13   26.20   14.40
  -6   5  13   22.30    9.00
   6   5 -13   31.90   11.60
  -5  -5  13   12.10   16.60
  -5  -5  13    2.70    5.00
   5   5 -13    3.80    5.50
  -5   5  13    4.00   10.40
  -5   5  13   13.50    8.20
   5   5 -13   12.40   12.40
  -4  -5  13   18.70   14.00
  -4  -5  13   -3.10    4.20
   4  -5 -13   -1.00    3.70
  -4   5  13    1.40    7.80
   4   5 -13   -2.30   12.00
  -4   5  13    0.90    8.30
   3  -5 -13   20.80    5.50
  -3  -5  13   29.40    8.10
  -3  -5  13   39.60   16.20
   3   5 -13   13.40    7.90
   3   5 -13   18.60    8.70
   3   5 -13   20.50   13.70
  -3   5  13   18.60    7.10
  -3   5  13   19.10   10.50
   2  -5 -13  213.28   15.60
  -2  -5  13  209.88   17.70
  -2  -5  13  208.38   30.90
   2  -5 -13  194.28   42.60
   2   5 -13  257.87   34.50
   2   5 -13  236.68   19.10
  -2   5  13  223.88   17.50
  -2   5  13  225.28   22.50
   1  -5 -13   16.00   22.70
   1  -5 -13   21.70    5.60
  -1  -5  13   30.10    8.20
  -1   5  13   31.80   11.20
  -1   5  13   16.70    6.30
  -1   5  13   17.90   17.00
   1   5 -13   35.80    9.60
   1   5 -13   14.40   14.60
   0  -5  13  400.76   26.50
   0  -5 -13  435.56   25.50
   0  -5 -13  445.76   62.69
   0   5  13  389.06   30.00
   0   5 -13  407.76   27.00
   0   5 -13  459.05   40.40
   0   5  13  392.76   40.10
   0   5  13  391.66   25.30
   1  -5  13  403.26   25.30
  -1  -5 -13  483.75   66.39
  -1  -5 -13  413.56   24.60
  -1   5 -13  349.27   43.10
   1   5  13  330.77   23.40
  -1   5 -13  365.16   24.70
   1   5  13  331.67   27.60
  -2  -5 -13   91.19   36.50
  -2  -5 -13   90.09   11.80
  -2   5 -13  108.59   13.20
   2   5  13   87.59   15.60
   2   5  13   93.99   13.00
  -2   5 -13   76.89   22.30
  -3  -5 -13  908.41   87.09
  -3  -5 -13  939.91   52.99
  -3  -5 -13 1076.69   86.79
   3   5  13  999.00   54.69
   3   5  13  938.11   52.59
  -3   5 -13  974.90   50.89
  -3   5 -13 1016.60   70.09
  -4  -5 -13   80.09   12.60
  -4  -5 -13   93.79   45.30
  -4  -5 -13   72.09   36.10
  -4   5 -13   75.59   10.30
  -4   5 -13   76.59   31.70
   4   5  13  100.99   13.50
   4   5  13   71.49   14.30
  -5  -5 -13  350.36   62.09
  -5  -5 -13  319.47   66.79
  -5  -5 -13  372.76   26.50
   5   5  13  345.97   24.50
  -5   5 -13  282.67   38.80
  -5   5 -13  262.47   19.60
  -6  -5 -13   90.99   49.30
  -6  -5 -13   65.79   43.50
  -6  -5 -13  110.39   16.90
   6   5  13  126.19   18.50
  -6   5 -13   82.59   26.40
  -6   5 -13  126.89   12.30
  -8  -6  13   -8.10   23.20
  -8   6  13    6.40    6.90
  -8   6  13    2.60   14.90
  -7  -6  13  307.47   42.00
   7   6 -13  308.77   30.20
   7   6 -13  224.28   29.20
  -7   6  13  313.67   40.30
  -7   6  13  324.07   25.70
   7   6 -13  341.17   29.00
  -6  -6  13  328.97   24.80
  -6  -6  13  290.27   43.20
   6   6 -13  316.77   27.00
  -6   6  13  282.17   36.60
  -6   6  13  306.07   25.10
   6   6 -13  359.56   33.80
  -5  -6  13  240.38   20.50
  -5  -6  13  257.87   38.90
  -5   6  13  251.87   22.20
   5   6 -13  292.97   34.60
   5   6 -13  230.98   22.50
  -5   6  13  226.38   31.80
  -4  -6  13  663.63   40.50
  -4  -6  13  664.13   52.49
  -4   6  13  645.44   46.80
   4   6 -13  796.52   51.89
   4   6 -13  669.03   41.90
  -4   6  13  720.63   41.30
  -3  -6  13    5.00    5.60
  -3  -6  13    3.10   13.70
   3  -6 -13    4.40    3.80
   3   6 -13    3.50   10.40
  -3   6  13    7.10    5.80
  -3   6  13   -2.60    7.90
   3   6 -13    8.20    6.40
   3   6 -13   -0.70    7.40
   2  -6 -13  847.12   47.60
  -2  -6  13  921.91   49.99
  -2  -6  13  946.41   61.99
   2   6 -13  911.31   61.49
  -2   6  13  850.11   48.60
   2   6 -13  927.51   51.39
  -2   6  13  973.20   56.09
   1  -6 -13  240.48   17.80
  -1  -6  13  265.87   19.70
  -1   6  13  239.98   28.30
   1   6 -13  240.38   19.90
  -1   6  13  251.47   18.30
   1   6 -13  263.97   35.70
   0  -6  13  156.58   15.00
   0  -6 -13  164.38   14.50
   0  -6 -13  128.89   37.90
   0   6 -13  130.09   15.90
   0   6  13  169.88   43.80
   0   6  13  169.48   22.60
   0   6 -13  175.98   29.20
   0   6  13  163.58   14.10
  -1  -6 -13  493.25   67.69
  -1  -6 -13  406.46   25.50
  -1   6 -13  349.67   43.10
   1   6  13  387.16   24.70
   1   6  13  343.57   29.20
  -1   6 -13  375.96   25.70
  -2  -6 -13    9.20   25.90
   2   6  13    2.10    9.10
  -2   6 -13   12.00   15.10
  -2   6 -13    3.80    5.20
   2   6  13    2.50    5.00
  -3  -6 -13   47.60   10.30
  -3  -6 -13   34.40   32.80
  -3  -6 -13   79.19   37.10
   3   6  13   49.50   12.60
  -3   6 -13   51.39    9.20
  -3   6 -13   26.10   17.10
   3   6  13   28.50    7.70
  -4  -6 -13    5.70   33.00
  -4  -6 -13   46.30   37.20
  -4  -6 -13   23.10    8.80
   4   6  13   23.50    8.00
  -4   6 -13   24.10   11.80
  -4   6 -13   24.70   19.20
   4   6  13   32.90   12.20
  -5  -6 -13   -6.50    7.20
  -5  -6 -13  -33.90   34.30
  -5  -6 -13  -11.00   30.20
  -5   6 -13    2.30    4.70
   5   6  13   -8.60    9.60
  -5   6 -13   -3.30   17.50
  -8  -7  13  -17.40   22.40
  -8   7  13    8.40    7.30
  -8   7  13    3.70   17.00
  -7  -7  13   -1.80   20.10
  -7   7  13   11.20    8.70
   7   7 -13   11.90   15.00
  -7   7  13   10.50   15.30
  -6  -7  13   11.60   20.90
   6   7 -13   19.90   11.40
  -6   7  13   13.00   14.70
   6   7 -13   -5.30   13.50
   6   7 -13   13.60   11.00
  -6   7  13    1.40    8.50
  -5  -7  13    4.20   17.60
  -5   7  13   -2.00    7.90
   5   7 -13    0.50   12.70
   5   7 -13   -0.60    6.50
  -5   7  13    6.10   12.50
  -4  -7  13   33.10    9.10
  -4  -7  13   44.70   20.30
   4   7 -13   37.40   16.60
  -4   7  13   37.00   15.40
  -4   7  13   49.70   11.80
   4   7 -13   40.00   10.80
  -3  -7  13   -4.60   14.70
  -3  -7  13   11.20    6.90
   3  -7 -13   13.70    8.60
   3   7 -13   42.30   17.30
  -3   7  13   19.00    7.50
   3   7 -13   19.90    8.20
  -2  -7  13  329.17   24.20
  -2  -7  13  366.46   37.00
   2   7 -13  384.26   43.60
  -2   7  13  329.97   23.20
  -2   7  13  334.37   30.70
   2   7 -13  335.57   25.50
  -1  -7  13   32.30   11.10
  -1  -7  13    9.80   16.10
   1  -7 -13   24.30    7.40
  -1   7  13   16.90    6.70
  -1   7  13   30.70   14.00
   1   7 -13   11.50   12.90
   1   7 -13   32.30    9.70
   0  -7 -13  524.25   31.50
   0   7  13  475.65   30.00
   0   7 -13  530.05   32.60
   0   7 -13  549.54   51.89
   0   7  13  460.05   36.60
  -1  -7 -13  397.76   26.80
   1   7  13  395.36   27.20
  -1   7 -13  405.76   26.90
   1   7  13  353.56   33.10
   1   7  13  343.77   42.90
  -1   7 -13  396.06   39.60
  -2  -7 -13   64.49   34.50
  -2  -7 -13   56.49   11.60
   2   7  13   90.29   18.70
   2   7  13   81.09   11.90
  -2   7 -13   92.89   12.50
  -2   7 -13   46.70   20.30
  -3  -7 -13  637.04   85.79
  -3  -7 -13  534.75   36.70
  -3  -7 -13  611.34   82.19
  -3   7 -13  559.84   33.40
   3   7  13  593.14   39.60
  -3   7 -13  632.04   53.29
   3   7  13  586.34   34.90
  -4  -7 -13   88.79   54.39
  -4  -7 -13   53.89   12.20
  -4  -7 -13   91.29   44.60
   4   7  13   85.59   17.10
  -4   7 -13   77.49   10.50
  -4   7 -13   42.10   22.10
   4   7  13   55.19   11.00
  -5  -7 -13  305.17   65.09
  -5  -7 -13  161.08   59.69
  -5  -7 -13  267.17   26.20
   5   7  13  326.07   27.70
  -5   7 -13  262.57   41.70
  -5   7 -13  262.07   18.40
  -7  -8  13  187.98   41.20
  -7   8  13  229.58   21.70
   7   8 -13  225.78   31.70
  -7   8  13  177.68   32.30
  -6  -8  13  208.98   38.90
   6   8 -13  227.48   32.50
  -6   8  13  300.87   25.70
  -6   8  13  259.27   38.20
  -5  -8  13  117.89   32.10
  -5   8  13  167.18   20.10
  -5   8  13  144.69   26.20
   5   8 -13  136.59   26.30
   5   8 -13  132.59   18.30
   5   8 -13   99.59   19.50
  -4  -8  13  605.74   53.49
   4   8 -13  594.34   48.20
  -4   8  13  601.44   37.00
   4   8 -13  538.25   38.50
  -4   8  13  651.23   47.00
  -3  -8  13    3.00    5.80
  -3  -8  13   -6.40   16.60
  -3   8  13   -5.60    4.60
   3   8 -13   -7.10    6.30
   3   8 -13    0.10   14.60
  -3   8  13    1.50   10.60
   3   8 -13   -8.50    6.40
  -2  -8  13  650.83   51.99
   2  -8 -13  543.85   34.20
  -2  -8  13  541.55   35.40
   2   8 -13  558.74   48.60
  -2   8  13  620.64   43.90
   2   8 -13  577.24   37.40
  -1  -8  13  268.47   21.60
   1  -8 -13  290.47   21.90
   1   8 -13  314.57   29.00
  -1   8  13  269.57   20.50
  -1   8  13  299.27   29.50
   1   8 -13  337.47   42.30
   0  -8 -13   63.19   12.10
   0   8  13   80.99   12.40
   0   8 -13   86.59   14.80
   0   8 -13   51.49   19.60
   0   8  13   86.29   19.10
  -1  -8 -13  321.17   24.60
   1   8  13  334.37   22.50
   1   8  13  257.47   32.70
  -1   8 -13  302.97   23.10
   1   8  13  297.77   29.00
  -1   8 -13  330.67   41.70
  -2  -8 -13   10.20    7.70
  -2  -8 -13   -4.00   26.20
  -2   8 -13    1.00    5.60
   2   8  13   -3.40   10.40
   2   8  13    6.40    5.90
  -2   8 -13   -0.80   15.30
  -3  -8 -13   23.00   37.20
  -3  -8 -13  100.79   45.80
   3   8  13   90.39   17.60
   3   8  13   57.89   11.10
  -3   8 -13   58.19   22.10
  -3   8 -13   47.00    9.90
  -4  -8 -13   70.69   47.30
  -4  -8 -13    6.70   34.00
  -4  -8 -13   36.20   16.00
  -4   8 -13   39.50    7.90
  -4   8 -13   31.00   21.30
   4   8  13   24.00   13.00
  -6  -9  13   33.10   27.10
   6   9 -13    0.10   19.20
  -6   9  13    7.50   11.40
  -6   9  13  -12.10   13.90
  -5  -9  13    8.50   21.50
  -5   9  13    6.90    9.00
  -5   9  13   -4.10   14.00
   5   9 -13    1.20    8.50
   5   9 -13   -1.20   14.70
   5   9 -13   -0.40   10.00
   5   9 -13   -6.80    9.80
  -4  -9  13   -0.50   18.60
   4   9 -13    1.50    8.70
   4   9 -13    7.20   10.30
  -4   9  13    4.50   13.20
  -4   9  13    9.10    8.20
   4   9 -13   10.60   16.30
   4   9 -13   14.70    9.00
  -3  -9  13   16.40   20.40
   3   9 -13   15.30    9.20
  -3   9  13   20.60    8.10
   3   9 -13   13.60    9.50
   3   9 -13   15.00    7.70
   3   9 -13    1.50   14.60
  -3   9  13   30.00   15.80
  -2  -9  13  161.98   32.50
   2   9 -13  219.38   34.90
   2   9 -13  219.38   21.40
  -2   9  13  232.18   19.00
  -2   9  13  251.07   32.50
   1  -9 -13    2.80    6.80
  -1  -9  13    1.50   16.70
   1   9 -13   12.30   16.00
  -1   9  13   16.60    6.90
  -1   9  13    8.80   11.90
   1   9 -13   18.20    9.60
   0  -9 -13  245.78   23.20
   0  -9  13  247.58   38.70
   0   9  13  287.07   21.60
   0   9  13  285.97   30.30
   0   9 -13  288.47   40.60
   0   9 -13  319.27   24.10
  -1  -9 -13  273.47   24.40
  -1   9 -13  300.67   41.80
   1   9  13  273.97   33.10
   1   9  13  304.87   22.30
  -1   9 -13  294.17   23.00
  -2   9 -13   35.40   21.00
   2   9  13   18.90   13.10
  -2   9 -13   25.90    9.20
   2   9  13   38.70    9.20
  -3  -9 -13  463.55   81.89
  -3  -9 -13  339.97   64.39
  -3   9 -13  433.96   52.89
   3   9  13  432.26   35.20
  -3   9 -13  367.96   26.40
  -4 -10  13  361.76   50.79
  -4  10  13  371.56   34.30
   4  10 -13  327.17   31.50
  -4  10  13  396.36   39.60
   4  10 -13  352.16   30.30
   4  10 -13  356.66   26.20
   4  10 -13  340.17   45.60
  -3 -10  13  -10.00   19.50
   3  10 -13   -4.20    8.50
   3  10 -13    4.80   15.60
  -3  10  13   11.90   14.80
   3  10 -13    2.30    8.30
   3  10 -13  -10.10    6.70
  -3  10  13    7.50    7.30
  -2 -10  13  297.27   43.10
   2  10 -13  328.27   27.90
  -2  10  13  377.26   25.50
   2  10 -13  369.86   45.40
  -2  10  13  360.96   36.00
   2  10 -13  309.17   28.60
  -1 -10  13  158.68   34.60
  -1  10  13  186.48   17.20
   1  10 -13  160.28   21.10
  -1  10  13  169.18   27.80
   1  10 -13  121.49   28.10
   1  10 -13  179.28   22.50
   0 -10  13   69.09   26.80
   0  10 -13   53.79   12.40
   0  10  13   62.39   18.90
   0  10 -13   75.19   14.50
   0  10 -13   57.89   22.90
   0  10  13   77.99   11.60
   1 -10  13  141.59   32.80
  -1  10 -13  212.58   38.50
  -1  10 -13  214.78   35.20
   1  10  13  184.98   27.70
   1  10  13  171.08   17.30
  -9   0  14  201.18   18.60
  -9   0  14  228.48   39.40
  -8   0  14  144.39   30.70
  -8   0  14  181.68   17.00
  -7   0  14  162.38   30.40
  -7   0  14  185.78   17.00
   7   0 -14  176.18   44.60
   6   0 -14  973.60   74.79
  -6   0  14 1044.80   64.59
   6   0 -14  872.41   55.79
  -6   0  14 1094.39   55.19
  -5   0  14    4.40   12.20
  -5   0  14   -1.40    4.90
   5   0 -14   -1.00    5.10
   5   0 -14    5.00   18.30
  -5   0  14    0.20    8.50
  -4   0  14  691.93   43.70
  -4   0  14  730.53   47.90
  -4   0  14  712.03   41.50
   4   0 -14  689.73   40.90
   4   0 -14  771.62   62.49
   3   0 -14  115.79   28.70
  -3   0  14  179.38   26.30
  -3   0  14  178.28   21.10
   3   0 -14  147.69   17.00
  -3   0  14  161.98   19.60
   2   0 -14  265.37   18.90
  -2   0  14  243.58   19.90
   2   0 -14  267.47   45.50
   2   0 -14  239.38   20.10
  -2   0  14  284.47   20.90
   1   0 -14  663.83   56.29
  -1   0  14  555.74   33.90
   1   0 -14  570.84   33.40
   1   0 -14  571.54   33.60
  -1   0  14  640.44   36.30
   0   0  14   45.30    8.70
   0   0 -14   61.79   10.30
   0   0 -14   53.39   23.50
  -1   0 -14   93.39   29.00
  -1   0 -14  109.49   12.90
   1   0  14  124.89   16.80
  -2   0 -14  145.89   33.70
  -2   0 -14   93.69   11.20
   2   0  14   98.89   14.70
  -3   0 -14   10.80    5.20
  -3   0 -14   18.30   20.70
   3   0  14    9.00    6.60
  -4   0 -14   29.00   26.50
  -5   0 -14   14.50   23.90
  -5   0 -14   30.00    8.50
  -6   0 -14   42.80   10.60
  -6   0 -14    8.90   26.90
  -7   0 -14    3.40    7.90
  -7   0 -14    7.40   50.89
  -9  -1  14   12.40    8.30
  -9  -1  14   16.40   25.10
  -9   1  14   15.70    8.10
  -8  -1  14   16.00    8.40
  -8   1  14   18.90    7.70
  -8   1  14   23.80   19.80
   7  -1 -14    2.40   25.80
  -7  -1  14    5.50    5.70
  -7  -1  14   -0.30   16.70
  -7   1  14    6.00   16.60
   7   1 -14   -9.80   28.70
   7   1 -14   -0.90    7.90
  -7   1  14    3.30    5.80
   6  -1 -14   18.50    8.60
  -6  -1  14   28.30   16.10
  -6  -1  14   30.90    8.00
   6  -1 -14   48.60   28.90
  -6   1  14   41.70   14.20
   6   1 -14   27.20    9.80
   6   1 -14    6.60   20.40
  -6   1  14   33.60    9.00
  -6   1  14   32.70   16.10
  -5  -1  14   -2.50   11.20
   5  -1 -14    1.20    5.00
  -5  -1  14    4.50    5.10
   5  -1 -14  -13.30   18.30
  -5   1  14    9.10    6.70
   5   1 -14  -16.20   17.10
  -5   1  14    8.70   10.30
   5   1 -14   10.00    7.10
  -5   1  14    5.40   12.40
   4  -1 -14  308.67   21.40
  -4  -1  14  260.27   21.30
   4  -1 -14  293.77   46.50
  -4  -1  14  286.97   29.10
  -4  -1  14  291.57   24.70
   4   1 -14  348.17   46.50
   4   1 -14  294.87   25.60
  -4   1  14  303.77   28.00
  -4   1  14  299.57   22.50
  -4   1  14  277.97   24.50
  -3  -1  14   35.20    9.80
  -3  -1  14   29.20   14.30
   3  -1 -14   37.20   23.90
   3  -1 -14   29.60    6.80
   3   1 -14   -1.20   14.90
  -3   1  14   33.10   10.60
   3   1 -14   36.10    9.30
  -3   1  14   27.90   13.60
   3   1 -14   33.20    8.30
  -3   1  14   22.20    7.00
   2  -1 -14  979.10   71.99
   2  -1 -14  773.52   47.30
  -2  -1  14  884.71   48.20
  -2  -1  14  768.82   46.50
   2  -1 -14  856.81   45.80
  -2   1  14  924.61   48.60
   2   1 -14  925.91   66.49
   1  -1 -14  770.32   65.29
   1  -1 -14  754.02   42.50
  -1  -1  14  800.32   44.70
   1   1 -14  701.63   41.40
  -1   1  14  795.62   43.80
   1   1 -14  773.62   61.99
  -1   1  14  842.32   44.90
   1   1 -14  788.02   42.80
   0  -1 -14  105.39   10.70
   0  -1 -14  126.29   14.20
   0  -1 -14   99.39   28.00
   0  -1  14  145.49   16.50
   0   1  14  125.19   12.90
   0   1 -14   96.09   26.50
   0   1  14   98.69   13.60
   0   1 -14  127.99   11.80
  -1  -1 -14 1214.18   64.89
   1  -1  14 1312.27   67.99
  -1  -1 -14 1386.06   92.69
  -1  -1 -14 1222.08   64.69
   1   1  14 1266.27   67.09
   1   1  14 1255.07   65.59
  -1   1 -14 1342.77   65.29
  -1   1 -14 1363.46   88.39
   2  -1  14  183.88   17.40
  -2  -1 -14  152.28   13.70
  -2  -1 -14  242.28   43.30
  -2   1 -14  158.88   35.60
  -2   1 -14  196.38   14.60
   2   1  14  185.38   16.60
   3  -1  14  750.52   45.10
  -3  -1 -14  864.81   71.89
  -3  -1 -14  829.32   43.00
  -3   1 -14  757.02   42.20
   3   1  14  733.33   44.20
  -3   1 -14  856.11   66.89
  -4  -1 -14  563.04   37.70
  -4  -1 -14  607.94   72.09
  -4   1 -14  619.14   34.50
   4   1  14  592.24   36.80
  -4   1 -14  629.04   58.19
  -5  -1 -14   66.99   11.90
  -5  -1 -14   45.40   31.00
  -5   1 -14   58.49   10.10
  -5   1 -14   45.30   25.50
  -6  -1 -14  347.57   25.80
  -6  -1 -14  302.37   53.19
  -6   1 -14  305.07   48.20
  -6   1 -14  354.16   24.60
  -9  -2  14  172.98   34.90
  -9  -2  14  207.18   19.60
  -9   2  14  225.98   20.20
  -9   2  14  242.68   41.00
  -8  -2  14  176.58   34.90
   8  -2 -14  181.38   42.30
  -8  -2  14  152.48   18.00
  -8   2  14  158.48   15.70
  -8   2  14  172.28   32.20
  -8   2  14  114.59   24.50
  -7  -2  14  115.79   28.20
  -7  -2  14  162.98   18.70
   7  -2 -14  162.78   39.90
   7   2 -14  112.89   28.80
   7   2 -14  150.38   43.80
  -7   2  14  164.88   27.80
  -7   2  14  151.18   17.90
  -7   2  14  152.08   25.40
   6  -2 -14  883.81   77.89
  -6  -2  14  900.91   62.59
   6  -2 -14  904.21   54.99
  -6  -2  14  963.40   51.59
  -6   2  14 1076.29   60.69
  -6   2  14  865.21   51.09
   6   2 -14  919.61   53.19
  -6   2  14  852.21   57.39
   6   2 -14  996.10   65.49
  -5  -2  14    9.70    4.80
   5  -2 -14    6.80    5.60
   5  -2 -14    2.00   23.20
  -5  -2  14   -6.20   10.90
  -5   2  14    5.00   11.50
  -5   2  14    4.30    6.40
   5   2 -14   13.70    7.30
  -5   2  14    6.50    8.30
   5   2 -14   -9.50   13.90
   4  -2 -14  846.62   45.80
  -4  -2  14  872.81   47.70
  -4  -2  14  867.61   56.29
   4  -2 -14  914.01   73.79
  -4   2  14  874.61   48.40
   4   2 -14  866.71   62.79
  -4   2  14  817.32   50.59
  -4   2  14  804.42   52.09
   4   2 -14  785.62   47.60
   3  -2 -14  315.07   51.39
  -3  -2  14  315.77   36.60
  -3  -2  14  350.46   24.20
   3  -2 -14  337.07   22.10
   3   2 -14  322.87   42.60
   3   2 -14  341.87   23.70
  -3   2  14  304.77   25.40
   3   2 -14  363.56   24.50
  -3   2  14  354.26   29.50
  -3   2  14  366.56   25.20
   2  -2 -14  454.85   60.99
   2  -2 -14  386.16   24.60
  -2  -2  14  372.86   26.60
   2   2 -14  472.05   44.30
  -2   2  14  405.06   27.20
   2   2 -14  422.56   25.70
  -2   2  14  418.26   28.30
   2   2 -14  390.56   26.40
   1  -2 -14  985.80   73.29
  -1  -2  14  884.91   50.89
   1  -2 -14  831.22   44.30
   1  -2 -14  842.82   47.70
   1   2 -14  909.91   64.59
  -1   2  14  714.93   72.69
   1   2 -14  746.03   47.60
  -1   2  14  794.12   46.30
  -1   2  14  856.51   47.20
   0  -2 -14   11.30   22.10
   0  -2 -14    0.50    3.50
   0  -2  14    3.20    4.80
   0  -2 -14    2.50    5.20
   0   2 -14    2.20    4.60
   0   2  14   15.60    6.30
   0   2 -14    9.00   15.00
  -1  -2 -14  233.18   44.10
  -1  -2 -14  147.89   14.10
   1  -2  14  177.18   18.50
  -1  -2 -14  151.48   13.30
  -1   2 -14  176.48   34.30
   1   2  14  149.69   16.70
  -1   2 -14  184.18   14.40
   1   2  14  187.78   18.80
   2  -2  14   46.00   10.30
  -2  -2 -14   46.50   26.70
  -2  -2 -14   34.00    8.70
  -2  -2 -14   49.60    8.10
  -2   2 -14   18.60   18.30
   2   2  14   29.90    7.80
  -2   2 -14   26.60    6.40
  -3  -2 -14    9.80    5.30
  -3  -2 -14   11.30   23.50
  -3   2 -14   33.10   20.80
   3   2  14   20.80    6.90
  -3   2 -14   27.90    6.60
   3   2  14   36.30    9.50
  -4  -2 -14   -5.00    5.60
  -4  -2 -14  -14.20   22.20
   4   2  14   -2.00    7.80
  -4   2 -14    7.10    4.90
   4   2  14    0.00    7.10
  -4   2 -14   21.80   20.70
  -5  -2 -14   22.70    7.60
  -5  -2 -14   17.30   27.40
  -5   2 -14   39.40    8.40
  -5   2 -14   44.30   25.30
   5   2  14   51.09   11.50
  -6  -2 -14   68.69   13.40
  -6  -2 -14   67.49   35.00
  -6   2 -14   62.89   28.70
  -6   2 -14   62.39   10.90
   6   2  14   47.50   12.90
  -9  -3  14   15.10   26.70
  -9   3  14    5.40    7.00
  -9   3  14   22.60   26.10
  -8  -3  14    7.20    9.80
   8  -3 -14   29.50   35.50
  -8  -3  14    5.40   20.70
  -8   3  14   14.70    7.40
   8   3 -14   -0.20   11.00
  -8   3  14   27.50   20.60
  -8   3  14   22.80   16.00
   7  -3 -14    1.50   30.80
  -7  -3  14   25.30    9.00
  -7  -3  14   25.10   19.80
  -7   3  14    1.90   16.50
  -7   3  14   13.50    7.30
  -7   3  14   15.90   13.60
   7   3 -14    1.60    7.50
  -6  -3  14    4.30   15.30
  -6  -3  14   10.90    6.70
   6  -3 -14  -12.00   26.90
   6   3 -14  -13.30   16.00
   6   3 -14    0.70    6.80
  -6   3  14    1.10    6.70
  -6   3  14   18.60   14.50
  -6   3  14    1.10   10.70
  -5  -3  14    1.00   14.10
   5  -3 -14    6.30   24.30
  -5  -3  14    3.10    5.00
   5  -3 -14    3.60    4.70
  -5   3  14    3.20    8.30
   5   3 -14   -6.10   13.60
  -5   3  14    0.30   11.30
  -5   3  14   -3.20    6.50
  -4  -3  14  300.87   22.20
   4  -3 -14  314.17   20.70
  -4  -3  14  353.36   33.50
   4  -3 -14  422.06   58.19
   4   3 -14  326.57   41.00
  -4   3  14  316.37   27.30
  -4   3  14  288.77   26.10
  -4   3  14  342.97   24.60
   4   3 -14  255.17   22.60
  -3  -3  14  114.79   21.60
   3  -3 -14   91.79   11.30
   3  -3 -14  115.49   35.50
  -3  -3  14   92.09   13.60
  -3   3  14   93.69   13.00
   3   3 -14  114.29   25.00
  -3   3  14   72.39   14.80
   3   3 -14   81.39   12.70
  -3   3  14   81.99   16.10
   2  -3 -14  578.34   33.50
  -2  -3  14  612.94   36.30
   2  -3 -14  626.14   71.49
   2   3 -14  685.23   51.49
  -2   3  14  602.74   36.20
   2   3 -14  574.54   36.00
  -2   3  14  595.04   38.00
   1  -3 -14  876.31   72.99
   1  -3 -14  835.32   45.30
  -1   3  14  946.21   75.79
   1   3 -14  900.01   63.39
  -1   3  14  922.11   49.80
   1   3 -14  828.52   47.30
  -1   3  14  793.02   47.00
   0  -3 -14   93.39   29.80
   0  -3  14  107.09   15.50
   0   3  14   82.89   13.90
   0   3 -14  106.79   14.70
   0   3  14  101.59   13.40
   0   3 -14   73.49   23.10
  -1  -3 -14 1488.85   73.49
  -1  -3 -14 1754.22  108.19
   1  -3  14 1484.85   75.69
  -1   3 -14 1498.75   73.99
   1   3  14 1425.56   74.29
  -1   3 -14 1315.07   90.69
   1   3  14 1336.97   75.59
  -2  -3 -14  117.79   13.00
   2  -3  14  111.69   15.10
  -2  -3 -14  157.48   38.30
  -2   3 -14  118.59   28.70
  -2   3 -14  118.09   14.70
   2   3  14  116.39   16.50
   2   3  14   92.69   13.40
  -3  -3 -14  846.32   44.70
  -3  -3 -14  863.11   75.49
   3   3  14  794.42   45.60
  -3   3 -14  752.92   62.29
  -3   3 -14  795.42   42.80
   3   3  14  751.22   44.50
  -4  -3 -14  567.84   75.19
  -4  -3 -14  665.53   39.30
   4   3  14  676.33   39.60
   4   3  14  680.13   39.90
  -4   3 -14  752.62   60.79
  -4   3 -14  647.54   37.00
  -5  -3 -14  102.89   14.60
  -5  -3 -14   34.00   41.00
  -5  -3 -14   93.49   37.90
  -5   3 -14   68.19   47.50
   5   3  14   80.29   13.90
  -5   3 -14   79.69   11.20
   5   3  14   65.19   17.60
  -6  -3 -14  306.37   25.10
  -6  -3 -14  278.57   54.49
  -6  -3 -14  277.47   75.99
  -6   3 -14  322.07   46.80
   6   3  14  307.37   25.10
  -6   3 -14  252.27   20.30
  -9  -4  14  208.48   41.00
  -9   4  14  188.68   33.80
  -9   4  14  205.68   38.50
  -9   4  14  191.08   17.10
  -8  -4  14   87.69   29.20
   8  -4 -14   93.99   43.80
  -8  -4  14  102.19   15.40
  -8   4  14  118.39   25.10
   8   4 -14   63.69   14.90
  -8   4  14   79.69   25.60
   7  -4 -14   50.99   35.00
  -7  -4  14   73.39   13.50
  -7  -4  14   87.29   25.50
   7   4 -14   75.49   16.40
  -7   4  14   70.79   12.90
   7   4 -14  110.79   21.70
  -7   4  14   75.89   21.10
  -7   4  14  148.19   26.20
  -6  -4  14  812.52   46.50
   6  -4 -14  963.30   81.39
  -6   4  14  783.32   51.09
   6   4 -14  847.12   49.30
  -6   4  14  651.83   55.79
  -6   4  14  785.32   46.50
   6   4 -14  843.22   56.29
  -5  -4  14    7.20   15.20
  -5  -4  14   18.90    7.20
   5  -4 -14    1.10   24.60
  -5   4  14   10.80    8.70
   5   4 -14    3.00    6.90
   5   4 -14   -7.30   11.70
  -5   4  14   -0.30   11.50
  -5   4  14   16.10   10.50
   4  -4 -14  627.84   39.80
   4  -4 -14  821.32   72.09
  -4  -4  14  671.73   50.79
  -4  -4  14  676.63   39.90
   4   4 -14  727.13   52.39
  -4   4  14  654.93   44.60
  -4   4  14  739.23   42.70
   4   4 -14  604.54   41.20
  -4   4  14  714.33   41.50
   3  -4 -14  340.57   55.29
   3  -4 -14  223.18   16.60
  -3  -4  14  222.98   18.50
  -3  -4  14  269.37   34.50
   3   4 -14  236.08   19.80
   3   4 -14  220.68   19.00
   3   4 -14  260.97   37.10
  -3   4  14  281.07   20.80
  -3   4  14  243.38   22.80
  -3   4  14  203.78   22.10
  -2  -4  14  225.98   18.90
   2  -4 -14  244.88   48.30
  -2  -4  14  262.37   34.10
   2  -4 -14  228.88   16.20
  -2   4  14  183.68   17.40
  -2   4  14  236.28   21.60
   2   4 -14  267.27   37.00
  -2   4  14  204.58   39.30
   2   4 -14  197.48   18.10
   1  -4 -14  568.24   32.50
  -1  -4  14  599.54   35.10
   1  -4 -14  677.43   63.59
   1   4 -14  519.35   47.30
  -1   4  14  609.14   57.79
  -1   4  14  550.64   37.00
   1   4 -14  552.84   34.80
   0  -4 -14   19.00    5.70
   0  -4 -14   64.89   30.70
   0  -4  14   14.60    6.50
   0   4  14   16.00    5.60
   0   4  14   27.80   10.80
   0   4 -14   25.00    7.40
   0   4  14   23.10   23.80
   0   4 -14   50.19   18.50
  -1  -4 -14  154.98   14.00
   1  -4  14  175.78   16.40
  -1  -4 -14  194.78   42.20
  -1   4 -14  169.68   32.10
  -1   4 -14  202.48   16.10
   1   4  14  190.98   21.90
   1   4  14  172.08   15.30
  -2  -4 -14   11.30    5.50
  -2  -4 -14   11.80   23.50
   2   4  14   19.80    7.00
  -2   4 -14   24.70    7.40
  -2   4 -14   29.80   18.00
   2   4  14   23.30   10.80
  -3  -4 -14   30.20    7.70
  -3  -4 -14   25.50   28.50
  -3   4 -14   22.20    6.40
   3   4  14   17.20    7.30
   3   4  14   14.80    9.80
  -3   4 -14   14.40   17.40
  -4  -4 -14    5.10   26.80
  -4  -4 -14   -1.90    5.20
  -4   4 -14    6.80   25.80
   4   4  14    5.10    7.40
  -4   4 -14   -0.10    4.60
   4   4  14   -6.30    7.90
  -5  -4 -14   50.89   41.40
  -5  -4 -14   47.60   11.70
  -5  -4 -14   74.89   41.50
  -5   4 -14   40.20    7.90
  -5   4 -14   44.40   22.50
   5   4  14   32.20   11.30
   5   4  14   51.29   11.30
  -6  -4 -14   49.90   12.20
  -6  -4 -14   45.80   48.70
  -6  -4 -14  134.59   54.59
   6   4  14   56.39   17.80
  -6   4 -14   55.89    9.90
  -6   4 -14   58.89   23.90
  -8  -5  14   31.60   24.90
   8  -5 -14   27.00   39.80
  -8   5  14    5.60   15.10
  -8   5  14   15.50    8.00
  -7  -5  14   10.70    7.70
  -7  -5  14    7.60   21.80
   7  -5 -14   16.40   35.70
  -7   5  14   -6.80   11.90
  -7   5  14   -0.70    7.40
   7   5 -14    2.00    8.20
   7   5 -14   13.70   13.60
   6  -5 -14   -3.50   29.70
  -6  -5  14   21.20   19.40
  -6  -5  14    8.90    8.20
   6   5 -14    1.20   14.60
  -6   5  14    9.10   11.20
  -6   5  14   17.10    8.90
   6   5 -14    0.10    9.90
   5  -5 -14  -26.20   22.30
  -5  -5  14  -23.40   24.50
  -5  -5  14    0.30    5.90
   5   5 -14    7.30    7.30
  -5   5  14    3.30   12.10
   5   5 -14   -5.60   12.90
  -5   5  14   25.70   11.40
   4  -5 -14  189.18   14.90
  -4  -5  14  237.88   33.40
  -4  -5  14  201.08   17.90
   4  -5 -14  162.38   42.90
   4   5 -14  187.08   29.80
  -4   5  14  219.68   24.20
   4   5 -14  129.09   18.80
  -4   5  14  192.88   25.80
  -3  -5  14   52.09    9.80
   3  -5 -14   42.00    7.70
   3  -5 -14   36.70   26.30
  -3  -5  14   41.10   18.10
   3   5 -14   66.99   11.50
  -3   5  14   41.90   13.20
   3   5 -14   61.79   20.40
  -3   5  14   37.10    9.10
   3   5 -14   51.59   11.90
   2  -5 -14  468.45   67.09
   2  -5 -14  390.46   25.20
  -2  -5  14  461.45   40.00
  -2  -5  14  379.46   27.20
   2   5 -14  423.66   28.70
  -2   5  14  444.56   32.40
   2   5 -14  488.45   41.80
  -2   5  14  410.96   27.30
  -2   5  14  443.06   44.80
   1  -5 -14  388.26   57.59
   1  -5 -14  328.47   22.90
  -1  -5  14  365.96   25.10
   1   5 -14  444.06   48.20
  -1   5  14  396.06   29.60
  -1   5  14  357.06   24.30
   1   5 -14  382.56   26.00
   0  -5  14  160.28   20.70
   0  -5 -14  109.59   37.20
   0  -5 -14   88.29   11.10
   0   5  14  117.49   28.50
   0   5  14  132.99   20.10
   0   5 -14  109.19   14.50
   0   5  14  101.89   13.40
   0   5 -14  148.29   29.50
  -1  -5 -14 1091.19   87.79
  -1  -5 -14  931.01   57.29
   1  -5  14 1011.70   55.19
   1   5  14  989.40   53.79
  -1   5 -14 1021.40   57.09
  -1   5 -14 1030.20   70.59
   1   5  14 1042.50   58.59
  -2  -5 -14   34.30    8.20
  -2  -5 -14   14.20   25.20
  -2   5 -14   39.50   20.20
  -2   5 -14   35.80    8.00
   2   5  14   41.70    8.80
   2   5  14   13.30   11.00
  -3  -5 -14  556.84   77.39
  -3  -5 -14  478.85   31.20
  -3   5 -14  507.05   48.90
  -3   5 -14  478.45   28.60
   3   5  14  452.85   30.40
   3   5  14  500.05   33.70
  -4  -5 -14  318.17   68.49
  -4  -5 -14  397.26   28.20
  -4   5 -14  375.36   49.70
   4   5  14  382.06   29.30
  -4   5 -14  379.16   23.90
   4   5  14  376.86   26.90
  -5  -5 -14   25.70   43.10
  -5  -5 -14   29.50   11.00
  -5  -5 -14   82.59   39.00
  -5   5 -14   49.10    8.70
   5   5  14   64.39   14.60
  -5   5 -14   62.19   24.80
   8  -6 -14  151.68   54.09
  -8  -6  14  108.89   33.50
  -8   6  14   61.49   22.40
  -8   6  14   94.19   14.10
   7  -6 -14  126.39   49.99
  -7  -6  14  122.19   33.10
   7   6 -14   94.89   21.20
   7   6 -14   70.89   16.90
  -7   6  14   78.79   20.90
  -7   6  14   97.39   16.00
  -6  -6  14  604.24   54.29
  -6  -6  14  606.14   38.30
  -6   6  14  657.63   39.90
  -6   6  14  573.54   46.40
   6   6 -14  588.94   40.60
   6   6 -14  585.34   46.90
  -5  -6  14    4.40   16.00
  -5  -6  14    3.00    6.80
   5   6 -14    1.80   13.80
  -5   6  14   -3.60   10.60
  -5   6  14   -2.10    7.50
  -4  -6  14  498.95   33.40
  -4  -6  14  585.54   84.19
   4   6 -14  613.54   45.50
  -4   6  14  504.05   33.80
   4   6 -14  516.75   35.20
  -3  -6  14  139.99   27.30
   3  -6 -14  146.69   13.10
  -3  -6  14  140.09   15.80
   3   6 -14  117.19   19.60
   3   6 -14  120.29   26.30
   3   6 -14  190.98   22.90
  -3   6  14  191.58   20.60
  -3   6  14  176.28   25.80
  -2  -6  14  237.58   34.40
   2  -6 -14  184.18   15.40
  -2  -6  14  191.28   17.90
   2   6 -14  228.78   33.70
   2   6 -14  189.78   18.70
  -2   6  14  195.88   17.10
  -2   6  14  199.68   25.90
  -1  -6  14  418.26   27.00
   1  -6 -14  382.16   24.80
   1  -6 -14  553.84   72.29
  -1   6  14  368.26   35.80
   1   6 -14  489.65   52.39
  -1   6  14  352.56   25.00
  -1   6  14  393.66   31.40
   1   6 -14  343.67   26.40
   0  -6  14   17.90    7.90
   0  -6 -14   31.00   26.60
   0  -6 -14   26.00   11.80
   0   6  14   30.10   12.70
   0   6 -14   27.10    8.80
   0   6 -14   32.40   17.90
   0   6  14   10.10   16.20
   0   6  14   24.40    7.20
  -1  -6 -14  146.19   43.20
  -1  -6 -14  131.89   16.40
  -1   6 -14   97.79   14.70
   1   6  14  104.69   14.00
   1   6  14   89.99   17.20
  -2   6 -14   16.30    7.20
   2   6  14   20.60    7.00
   2   6  14    2.60   10.40
  -2   6 -14   21.60   17.30
  -3  -6 -14    9.90    7.80
  -3  -6 -14    2.00   28.60
   3   6  14    9.30    6.70
  -3   6 -14   10.20   15.80
  -3   6 -14    8.20    5.70
  -4  -6 -14    0.00   29.80
  -4  -6 -14    1.60    7.30
  -4  -6 -14    0.00   33.20
  -4   6 -14    4.80    5.60
   4   6  14   17.90   11.00
   4   6  14    3.80    7.10
  -4   6 -14  -12.60   15.20
  -5  -6 -14   47.60   38.00
  -5  -6 -14   30.00   43.30
  -5  -6 -14   25.00   11.00
  -5   6 -14   17.20   19.70
  -5   6 -14   20.00    6.30
   5   6  14   30.40   13.60
  -7  -7  14  -23.80   19.20
  -7   7  14   -2.50    8.60
  -7   7  14   10.10   15.10
   7   7 -14   -9.50   14.00
  -6  -7  14   16.10   21.10
  -6   7  14   21.10   15.40
  -6   7  14   20.70   10.50
   6   7 -14   23.40   10.60
   6   7 -14   38.00   17.90
  -5  -7  14   11.50   19.10
  -5  -7  14   -1.10    6.80
  -5   7  14   -7.30   11.20
   5   7 -14    8.60    9.50
   5   7 -14    4.10   15.80
  -5   7  14    8.60    9.20
  -4  -7  14  190.98   30.60
  -4  -7  14  170.68   33.20
   4   7 -14  190.28   24.60
  -4   7  14  165.28   20.20
  -4   7  14  202.68   28.40
   4   7 -14  159.58   28.90
  -3  -7  14   83.99   25.00
  -3  -7  14   71.99   13.70
  -3   7  14   57.69   16.40
  -3   7  14   47.70   10.80
   3   7 -14   56.49   20.00
   3   7 -14   71.49   12.60
  -2  -7  14  313.37   24.60
  -2   7  14  339.37   24.20
   2   7 -14  370.16   44.10
  -2   7  14  399.36   36.10
   2   7 -14  346.77   26.70
   1  -7 -14  375.56   26.30
  -1  -7  14  380.36   27.20
  -1  -7  14  322.17   66.49
   1   7 -14  475.15   65.49
   1   7 -14  432.46   29.10
  -1   7  14  422.46   26.80
   0  -7 -14  107.79   14.90
   0  -7 -14  115.09   40.70
   0   7  14   82.09   19.50
   0   7  14   92.09   13.20
   0   7 -14  105.69   24.40
   0   7 -14  118.09   16.90
  -1  -7 -14 1033.40   89.29
  -1  -7 -14  811.02   47.20
  -1   7 -14  873.01   63.09
   1   7  14  807.52   46.20
  -1   7 -14  825.82   47.30
   1   7  14  802.32   52.39
  -2  -7 -14   59.19   36.10
  -2  -7 -14   30.00    8.90
   2   7  14   63.69   17.60
   2   7  14   54.29   10.50
  -2   7 -14   55.19   10.50
  -2   7 -14   62.49   22.30
  -3  -7 -14  346.77   27.40
  -3  -7 -14  340.77   63.99
   3   7  14  372.26   31.50
  -3   7 -14  363.56   27.20
  -3   7 -14  383.06   49.10
   3   7  14  340.87   25.40
  -4  -7 -14  356.06   28.50
  -4  -7 -14  337.47   72.99
  -4  -7 -14  301.67   64.89
  -4   7 -14  332.47   22.30
   4   7  14  376.66   31.00
  -4   7 -14  300.57   45.80
  -6  -8  14  390.86   53.49
   6   8 -14  560.94   47.20
  -6   8  14  510.25   36.10
  -6   8  14  460.75   44.20
  -5  -8  14  -13.90   18.10
  -5   8  14    6.00    8.80
   5   8 -14    3.20    8.40
   5   8 -14    5.30   17.40
  -5   8  14    0.20   13.50
  -4  -8  14  450.75   53.29
   4   8 -14  489.85   58.29
   4   8 -14  355.26   30.40
  -4   8  14  405.16   29.30
  -4   8  14  430.36   38.10
  -3  -8  14  177.68   34.80
  -3  -8  14  151.68   19.90
  -3   8  14  203.18   29.10
   3   8 -14  135.79   15.60
   3   8 -14  149.49   19.90
  -3   8  14  163.48   18.10
   3   8 -14  218.78   34.70
   2  -8 -14  111.89   15.40
  -2  -8  14  101.79   27.30
   2   8 -14  104.29   16.30
   2   8 -14   84.79   23.80
  -2   8  14  157.28   25.30
   1  -8 -14  306.57   23.10
  -1  -8  14  258.87   39.50
  -1   8  14  319.27   30.20
   1   8 -14  359.06   44.60
   1   8 -14  281.07   24.20
  -1   8  14  278.27   21.80
   0  -8 -14   27.30    8.80
   0   8 -14   27.90    8.90
   0   8  14   35.40    9.00
   0   8  14   48.50   16.30
   0   8 -14   25.60   16.40
  -1  -8 -14   53.09   12.60
  -1  -8 -14   30.10   33.50
   1   8  14   53.09   15.90
  -1   8 -14   70.89   13.20
  -1   8 -14  101.09   26.30
   1   8  14   82.19   13.20
  -2  -8 -14   24.10   10.00
  -2  -8 -14   38.50   35.40
  -2   8 -14   37.20   20.10
  -2   8 -14   27.80    8.70
   2   8  14   36.90   14.50
   2   8  14   24.60    8.10
  -3  -8 -14   20.40   36.10
  -3   8 -14   23.10   20.80
  -3   8 -14    3.40    6.10
   3   8  14    0.50   11.50
  -5  -9  14   39.60   28.00
   5   9 -14   15.70   10.20
   5   9 -14    0.10   16.10
   5   9 -14   14.50   12.10
   5   9 -14    2.60    8.90
  -5   9  14   13.80   18.00
  -5   9  14    5.20    9.10
  -4  -9  14  106.69   31.30
  -4   9  14  101.39   23.80
   4   9 -14   96.79   15.80
   4   9 -14  125.49   28.60
   4   9 -14   90.79   18.40
  -4   9  14  111.69   16.20
   4   9 -14  111.49   15.10
  -3  -9  14    7.70   20.70
   3   9 -14   29.60    8.70
  -3   9  14   18.30   14.60
   3   9 -14   53.49   21.30
   3   9 -14   28.00   11.20
  -3   9  14   21.80    9.50
  -2  -9  14  187.88   35.20
  -2   9  14  247.98   32.80
   2   9 -14  191.28   34.50
   2   9 -14  233.38   37.30
  -2   9  14  214.38   19.30
   1  -9 -14  289.07   24.40
  -1  -9  14  252.97   40.00
   1   9 -14  304.77   25.30
   1   9 -14  318.67   42.50
  -1   9  14  297.47   31.10
  -1   9  14  265.37   21.80
   0  -9 -14   65.49   14.90
   0  -9  14   20.70   22.10
   0   9  14   72.89   19.30
   0   9 -14   40.20   11.40
   0   9 -14   54.69   20.90
   0   9  14   50.09   10.40
  -1   9 -14  452.35   32.00
  -1   9 -14  612.74   51.29
   1   9  14  445.96   39.00
   1   9  14  502.15   31.90
  -2  -9 -14   27.20   35.50
  -2   9 -14   50.69   21.60
   2   9  14   19.00   15.00
  -2   9 -14   29.90    9.40
   2   9  14   48.30   12.00
  -3 -10  14   45.00   27.30
  -3  10  14   63.19   13.00
   3  10 -14   50.49   16.80
   3  10 -14   72.29   15.00
  -3  10  14   64.09   19.70
   3  10 -14   88.39   26.20
  -2 -10  14   84.79   31.40
  -2  10  14   59.49   20.30
   2  10 -14   47.80   21.70
  -2  10  14   89.59   13.70
   2  10 -14   97.39   17.90
   2  10 -14   43.50   14.30
  -1 -10  14  162.88   36.20
   1  10 -14  135.59   20.20
  -1  10  14  146.79   18.10
   1  10 -14  151.28   20.30
  -1  10  14  199.88   29.70
   1  10 -14  171.98   32.70
   0 -10  14  -16.60   19.80
   0  10  14   10.50    7.40
   0  10 -14    4.40    8.20
   0  10 -14   -0.80   15.90
   0  10 -14   -5.50    6.40
   0  10  14  -11.80   11.10
  -9   0  15   65.69   12.00
  -9   0  15   77.19   30.00
  -8   0  15  482.15   48.40
  -8   0  15  436.26   30.00
  -7   0  15   -6.30    5.00
   7   0 -15   -1.50   12.50
   7   0 -15  -12.40   23.00
  -7   0  15    1.10   17.70
   6   0 -15  637.44   63.19
  -6   0  15  690.93   40.30
   6   0 -15  652.83   41.20
  -6   0  15  594.44   48.60
  -6   0  15  675.23   46.20
   5   0 -15  144.89   18.50
  -5   0  15  170.28   27.10
  -5   0  15  146.49   22.80
  -5   0  15  142.29   16.80
   5   0 -15  277.57   44.20
   4   0 -15   94.39   13.40
   4   0 -15  162.28   37.40
  -4   0  15  120.69   22.10
  -4   0  15   80.29   13.10
  -4   0  15   96.69   17.90
   3   0 -15  264.97   19.60
  -3   0  15  275.27   33.00
   3   0 -15  226.68   41.50
  -3   0  15  237.68   21.40
  -3   0  15  232.38   20.20
   2   0 -15   14.90    6.30
   2   0 -15   -3.30   16.60
   2   0 -15   15.50    8.40
  -2   0  15   20.40    8.90
  -2   0  15   17.80    7.10
   1   0 -15   98.79   29.00
  -1   0  15  118.29   14.80
   1   0 -15  122.29   15.80
   1   0 -15   94.39   12.50
  -1   0  15  119.19   16.50
   0   0  15  213.18   30.10
   0   0 -15  207.88   39.70
   0   0 -15  167.38   14.70
   1   0  15   43.90   10.40
  -1   0 -15   41.40   24.50
  -1   0 -15   34.20    7.30
   2   0  15    7.80    7.10
  -2   0 -15   12.60    5.30
  -2   0 -15   15.60   21.90
  -3   0 -15   66.79   30.30
  -3   0 -15   84.09   11.90
   3   0  15   76.69   13.50
  -4   0 -15   26.90   25.60
  -5   0 -15    3.90   24.10
  -5   0 -15    3.80    6.50
  -6   0 -15  230.88   46.80
  -6   0 -15  265.47   22.20
  -9  -1  15   10.60   25.20
  -9  -1  15    2.70    7.80
  -9   1  15   -3.10    7.20
  -9   1  15    3.70   24.70
  -8  -1  15   33.60   24.80
  -8  -1  15   21.40    8.70
  -8   1  15   17.60   22.30
  -8   1  15   25.40    9.40
  -7  -1  15   15.50    8.20
   7  -1 -15    8.40   27.80
  -7  -1  15  -14.80   17.10
  -7   1  15    8.40    7.50
   7   1 -15   19.60   10.80
   7   1 -15    6.90   20.50
  -7   1  15   18.40   13.90
  -7   1  15   27.60   17.90
   6  -1 -15  130.99   40.10
  -6  -1  15  182.08   29.40
  -6  -1  15  185.68   17.30
   6  -1 -15  127.79   16.90
   6   1 -15  194.88   36.30
  -6   1  15  123.49   22.80
  -6   1  15  128.79   16.50
  -6   1  15  190.08   28.70
   6   1 -15  217.18   20.50
   5  -1 -15   72.89   12.30
  -5  -1  15   72.99   12.70
  -5  -1  15   58.19   18.60
   5  -1 -15   77.39   29.40
   5   1 -15   96.09   15.70
   5   1 -15   80.29   29.00
  -5   1  15   88.99   15.00
  -5   1  15   48.30   13.90
  -5   1  15   92.99   20.90
  -4  -1  15  451.85   31.70
  -4  -1  15  476.85   33.80
   4  -1 -15  470.45   61.99
  -4  -1  15  517.95   40.90
   4  -1 -15  517.95   30.60
  -4   1  15  431.36   33.30
   4   1 -15  494.75   57.69
   4   1 -15  439.16   40.60
  -4   1  15  478.65   31.70
  -4   1  15  508.45   38.90
  -3  -1  15  567.04   36.90
  -3  -1  15  593.44   36.40
   3  -1 -15  646.94   60.19
  -3  -1  15  589.04   44.50
   3  -1 -15  528.55   37.10
  -3   1  15  582.24   36.60
   3   1 -15  561.54   39.00
   3   1 -15  568.54   35.40
  -3   1  15  632.04   38.20
  -3   1  15  606.84   43.40
   3   1 -15  658.93   56.39
  -2  -1  15  144.19   15.40
   2  -1 -15  149.99   13.40
   2  -1 -15  149.59   35.90
  -2  -1  15  141.49   18.30
   2   1 -15  142.09   34.10
  -2   1  15  121.99   17.00
   2   1 -15  156.88   17.10
  -2   1  15  162.58   18.60
  -1  -1  15 1429.16   70.29
   1  -1 -15 1288.87   66.79
   1  -1 -15 1372.76   93.89
  -1  -1  15 1185.88   66.29
  -1   1  15 1352.76   70.99
   1   1 -15 1286.37   88.59
   1   1 -15 1275.97   67.19
  -1   1  15 1288.67   69.19
   0  -1 -15   53.59    9.20
   0  -1 -15   81.59   11.30
   0  -1 -15   55.59   24.80
   0  -1  15   81.49   13.90
   0   1 -15   92.99   28.30
   0   1  15   84.49   12.80
   0   1  15   56.49   10.50
   0   1 -15   87.29   12.40
   1  -1  15  750.72   44.10
  -1  -1 -15  718.03   40.60
  -1  -1 -15  705.03   39.40
  -1  -1 -15  850.11   69.69
  -1   1 -15  905.21   67.39
   1   1  15  725.53   41.70
   1   1  15  770.62   43.80
  -1   1 -15  762.42   41.10
  -2  -1 -15  747.83   41.20
   2  -1  15  809.02   45.00
  -2  -1 -15  821.62   70.59
   2   1  15  704.23   43.40
  -2   1 -15  771.62   41.20
  -2   1 -15  668.43   63.09
   2   1  15  722.23   42.10
  -3  -1 -15   83.59   32.10
   3  -1  15   83.49   13.30
  -3  -1 -15   93.59   11.60
  -3   1 -15   92.09   13.10
   3   1  15   62.59   12.80
  -3   1 -15   61.19   25.80
  -4  -1 -15  710.33   41.40
  -4  -1 -15  719.23   70.89
  -4   1 -15  752.42   66.79
  -4   1 -15  737.33   40.80
  -5  -1 -15   18.70   27.30
  -5  -1 -15   15.20    8.10
  -5   1 -15   13.10    7.00
  -6  -1 -15  161.58   44.40
  -6  -1 -15  120.19   16.30
  -6   1 -15  167.38   41.40
  -6   1 -15  115.09   15.70
  -9  -2  15   87.19   13.80
  -9  -2  15   79.59   31.50
  -9   2  15   96.59   31.70
  -9   2  15   69.99   13.70
   8  -2 -15  338.67   58.39
  -8  -2  15  409.06   27.80
  -8  -2  15  402.26   49.40
  -8   2  15  254.97   36.20
  -8   2  15  352.46   25.60
  -8   2  15  343.17   42.90
  -7  -2  15    6.10    7.20
   7  -2 -15  -27.60   26.00
  -7   2  15    7.80   13.30
  -7   2  15  -16.60   15.60
  -7   2  15   -2.50    6.10
   7   2 -15   -8.20   16.40
  -6  -2  15  677.63   40.90
   6  -2 -15  849.81   74.59
   6  -2 -15  668.13   44.00
  -6  -2  15  614.84   52.49
  -6   2  15  601.64   46.60
  -6   2  15  744.63   50.59
   6   2 -15  743.03   56.49
  -6   2  15  727.03   42.00
   6   2 -15  651.03   42.70
   5  -2 -15  199.68   42.60
  -5  -2  15  201.48   18.40
  -5  -2  15  170.58   28.10
   5  -2 -15  194.48   17.90
  -5   2  15  247.08   30.20
  -5   2  15  194.18   26.00
   5   2 -15  202.18   19.60
  -5   2  15  242.58   20.40
   5   2 -15  237.98   37.00
  -4  -2  15   85.59   12.40
   4  -2 -15   74.29   10.70
  -4  -2  15   67.79   19.50
   4  -2 -15   72.29   29.90
  -4   2  15   95.39   15.40
   4   2 -15   75.59   25.10
  -4   2  15   95.69   19.80
   4   2 -15  104.99   14.80
  -4   2  15   47.50   13.60
   3  -2 -15  426.06   26.30
   3  -2 -15  540.35   69.19
  -3  -2  15  445.36   38.30
  -3   2  15  442.66   29.50
   3   2 -15  431.36   51.69
  -3   2  15  445.76   30.90
   3   2 -15  373.46   27.40
  -3   2  15  434.96   34.80
   3   2 -15  385.66   28.50
   2  -2 -15   -3.00   16.50
   2  -2 -15   -0.30    3.90
  -2  -2  15    6.30    6.20
   2   2 -15    4.50    6.70
   2   2 -15    5.00   16.30
   2   2 -15    7.90    5.40
  -2   2  15    9.20    6.90
  -2   2  15    3.90    6.70
   1  -2 -15  203.18   42.20
  -1  -2  15  178.08   19.80
   1  -2 -15  164.68   13.70
  -1   2  15  154.18   17.90
   1   2 -15  128.69   30.10
   1   2 -15  157.48   15.00
  -1   2  15  165.78   16.70
   0  -2  15  162.58   18.60
   0  -2 -15   99.69   32.50
   0  -2 -15  111.59   11.70
   0   2 -15  157.68   16.70
   0   2  15  148.39   17.60
   0   2 -15  167.58   33.80
   0   2  15  138.69   17.90
  -1  -2 -15   25.60   24.40
  -1  -2 -15   12.70    8.60
  -1  -2 -15   19.40    7.80
   1  -2  15    9.20    6.50
  -1   2 -15    7.30   16.70
   1   2  15    9.30    6.00
   1   2  15   13.10    7.90
  -1   2 -15   21.60    6.30
   2  -2  15   14.30    8.50
  -2  -2 -15    4.90    5.00
  -2  -2 -15   -1.40   20.60
  -2   2 -15   16.00   18.70
   2   2  15    0.30    6.00
  -2   2 -15    4.50    4.50
   2   2  15   -4.80    7.20
  -3  -2 -15   72.69   11.70
  -3  -2 -15   17.50   24.20
   3   2  15   46.70   11.30
  -3   2 -15   68.89   25.80
   3   2  15   35.80    9.50
  -3   2 -15   62.49   10.10
  -4  -2 -15   93.19   13.90
  -4  -2 -15   43.50   31.20
   4   2  15   84.09   14.90
  -4   2 -15  110.29   35.10
  -4   2 -15   90.29   11.80
   4   2  15   56.79   12.20
  -5  -2 -15    7.00   31.40
  -5  -2 -15   10.50    7.90
   5   2  15   -6.00    8.20
  -5   2 -15    4.40    6.30
  -5   2 -15    0.70   22.40
  -6  -2 -15  253.17   22.70
  -6  -2 -15  169.08   46.90
  -6   2 -15  206.58   19.00
  -6   2 -15  103.09   32.90
   6   2  15  250.57   22.50
  -9  -3  15   -2.90   22.30
  -9  -3  15    4.10    7.80
  -9   3  15   -2.30    6.50
  -9   3  15    2.00   25.20
   8  -3 -15   31.40   38.80
  -8  -3  15   16.00   22.20
  -8  -3  15    6.20   10.00
  -8   3  15    5.40    7.10
  -8   3  15    4.40   14.60
  -8   3  15   16.20   21.80
   8   3 -15    1.90   11.20
   7  -3 -15   20.40   36.40
  -7  -3  15   14.70   20.20
  -7  -3  15    9.60    8.20
   7   3 -15    5.80    9.80
  -7   3  15    5.20    7.60
  -7   3  15   -6.40   12.50
  -7   3  15   -4.10   16.10
   7   3 -15   26.50   18.50
  -6  -3  15  102.89   15.20
   6  -3 -15  117.49   40.50
  -6  -3  15   93.89   25.90
  -6   3  15  148.19   18.20
   6   3 -15  118.79   27.00
   6   3 -15  111.99   18.80
  -6   3  15  180.48   26.90
  -5  -3  15   19.20    8.60
   5  -3 -15   61.19   33.00
  -5  -3  15   47.80   19.80
   5  -3 -15   36.00    8.30
   5   3 -15   39.10   19.70
  -5   3  15   57.59   12.50
  -5   3  15   87.09   35.70
   5   3 -15   50.49   12.70
  -5   3  15   41.80   13.30
   4  -3 -15  330.17   55.79
   4  -3 -15  298.17   20.20
  -4  -3  15  285.87   22.30
  -4  -3  15  308.67   39.00
   4   3 -15  248.08   37.30
  -4   3  15  277.67   30.30
  -4   3  15  311.07   24.10
   4   3 -15  251.67   22.40
  -4   3  15  288.97   26.30
  -3  -3  15  785.42   52.89
   3  -3 -15  699.33   80.29
  -3  -3  15  679.73   40.80
   3  -3 -15  681.73   38.30
   3   3 -15  581.44   40.00
  -3   3  15  678.73   43.50
   3   3 -15  732.53   56.89
  -3   3  15  756.02   46.40
  -3   3  15  666.33   41.30
   3   3 -15  711.03   40.10
  -2  -3  15   64.09   11.00
   2  -3 -15  138.69   39.30
   2  -3 -15   67.19   10.10
  -2   3  15   81.59   14.80
   2   3 -15   60.59   21.90
  -2   3  15   50.09   10.10
   2   3 -15   82.59   13.70
  -2   3  15   46.80   31.70
   1  -3 -15 1478.55  104.69
   1  -3 -15 1407.46   73.59
  -1  -3  15 1415.56   76.39
   1   3 -15 1463.25   75.99
  -1   3  15 1477.75   76.29
  -1   3  15 1553.44   78.09
   1   3 -15 1454.15   93.09
   0  -3  15  105.39   14.20
   0  -3 -15   71.49   31.10
   0   3  15   80.69   13.40
   0   3  15   95.79   15.40
   0   3 -15   89.09   12.90
   0   3 -15  153.48   31.50
  -1  -3 -15  980.10   54.89
  -1  -3 -15 1083.29   86.99
   1  -3  15 1028.60   59.19
  -1   3 -15 1084.69   75.99
   1   3  15 1081.39   57.09
   1   3  15 1012.80   58.19
  -1   3 -15 1125.09   56.09
  -2  -3 -15  765.52   72.79
  -2  -3 -15  748.43   42.10
   2  -3  15  779.72   46.50
   2   3  15  707.23   44.60
   2   3  15  758.52   43.50
  -2   3 -15  684.73   61.09
  -2   3 -15  793.32   42.40
  -3  -3 -15   82.79   36.50
  -3  -3 -15  119.99   15.30
   3   3  15   82.09   15.20
  -3   3 -15   89.59   27.00
  -3   3 -15  124.59   13.90
   3   3  15  110.09   14.60
  -4  -3 -15  692.43   40.30
  -4  -3 -15  690.33   83.09
   4   3  15  661.83   40.70
   4   3  15  684.53   52.59
  -4   3 -15  764.52   63.79
  -4   3 -15  610.74   37.00
  -5  -3 -15    8.30    7.60
  -5  -3 -15   14.70   38.20
   5   3  15    1.70    9.90
  -5   3 -15   -5.90   18.70
  -5   3 -15    1.00    7.80
  -6  -3 -15  105.59   16.60
  -6  -3 -15  136.29   44.80
   6   3  15  112.99   17.40
  -6   3 -15  110.69   34.80
  -6   3 -15  108.69   14.20
   9  -4 -15   65.49   47.20
  -9  -4  15   66.19   32.70
  -9   4  15   52.09   10.50
  -9   4  15   73.69   30.90
  -9   4  15   62.19   22.00
  -8  -4  15  255.87   42.30
   8  -4 -15  205.28   54.39
  -8  -4  15  281.87   24.00
  -8   4  15  288.37   28.40
  -8   4  15  225.88   34.70
  -8   4  15  256.77   37.10
  -7  -4  15   -0.60    7.50
  -7  -4  15    4.50   20.20
   7  -4 -15    0.70   33.10
   7   4 -15    4.30    8.50
  -7   4  15   -3.10   12.60
  -7   4  15   -1.70   16.40
  -7   4  15    1.70    7.10
   7   4 -15  -21.10   13.50
  -6  -4  15  650.53   54.89
   6  -4 -15  546.35   76.69
  -6  -4  15  637.04   40.20
  -6   4  15  627.54   46.80
   6   4 -15  637.24   42.60
  -6   4  15  679.33   41.30
  -6   4  15  667.23   47.70
   6   4 -15  709.53   52.39
  -5  -4  15  186.18   17.60
   5  -4 -15  249.78   53.49
  -5  -4  15  250.27   35.60
  -5   4  15  183.68   24.40
   5   4 -15  127.09   17.10
  -5   4  15  132.59   18.10
   5   4 -15  144.59   28.90
  -5   4  15  172.88   26.50
   4  -4 -15  229.58   48.10
  -4  -4  15  131.49   17.70
  -4  -4  15  160.48   28.40
  -4   4  15  157.28   21.50
   4   4 -15  201.28   33.40
  -4   4  15  182.18   25.20
  -4   4  15  153.88   18.50
  -3  -4  15  418.46   39.50
   3  -4 -15  383.16   25.10
   3  -4 -15  510.95   68.99
  -3  -4  15  420.76   27.90
  -3   4  15  428.26   28.90
  -3   4  15  420.56   32.00
  -3   4  15  435.16   32.50
   3   4 -15  446.06   29.50
   3   4 -15  328.77   26.70
   3   4 -15  534.75   56.19
  -2  -4  15    6.20    5.90
   2  -4 -15    7.60    4.70
  -2  -4  15   -5.30   12.10
   2  -4 -15   -6.00   21.40
   2   4 -15   11.20    7.80
   2   4 -15   22.60   16.10
  -2   4  15   10.60    9.00
  -2   4  15    1.40    5.60
  -2   4  15   15.60   24.70
   1  -4 -15  154.78   41.20
  -1  -4  15  192.58   18.10
   1  -4 -15  194.08   15.50
  -1   4  15  221.38   42.80
  -1   4  15  218.78   23.50
   1   4 -15  189.38   35.50
  -1   4  15  202.58   20.40
   1   4 -15  178.78   17.70
   0  -4 -15   57.59    9.60
   0  -4  15   33.20    8.90
   0  -4 -15   12.60   27.50
   0   4 -15   41.40    9.80
   0   4  15   43.50    9.60
   0   4 -15   45.20   21.20
   0   4  15   38.60   11.90
  -1  -4 -15    4.80    4.60
   1  -4  15    4.80    6.40
  -1  -4 -15   -1.80   22.50
   1   4  15   24.20   10.80
  -1   4 -15   18.60    6.80
  -1   4 -15   15.10   16.20
   1   4  15   10.30    6.20
  -2  -4 -15    2.60   22.50
  -2   4 -15   -0.50   14.90
  -2   4 -15   -1.50    4.40
   2   4  15    0.30    4.60
   2   4  15  -12.30    7.80
  -3  -4 -15   93.29   39.10
  -3  -4 -15  107.69   14.90
   3   4  15   77.99   12.40
  -3   4 -15   44.00   22.20
   3   4  15   70.99   14.30
  -3   4 -15   83.69   12.00
  -4  -4 -15   75.09   13.90
  -4  -4 -15  139.19   56.89
  -4   4 -15  109.19   12.80
   4   4  15  110.49   16.90
  -4   4 -15  100.09   29.80
   4   4  15  110.49   15.60
  -5  -4 -15   -0.20   15.90
  -5  -4 -15    9.60   33.90
   5   4  15   -9.10    9.20
  -5   4 -15   28.20   23.20
  -5   4 -15   -1.00    5.30
  -8  -5  15   -4.20   23.50
   8  -5 -15   20.10   41.90
  -8   5  15   26.00   18.60
  -8   5  15    6.90    7.80
  -7  -5  15    2.60    6.50
   7  -5 -15   12.50   37.40
  -7  -5  15   -9.90   18.70
   7   5 -15    2.70    9.90
  -7   5  15   -6.50   13.40
   7   5 -15    4.80   16.40
  -7   5  15    8.80    9.20
   6  -5 -15   62.09   38.50
  -6  -5  15   99.09   29.10
  -6  -5  15  151.88   30.90
   6   5 -15  159.38   28.40
   6   5 -15  122.39   26.10
  -6   5  15  106.09   16.80
  -6   5  15  112.19   22.90
  -5  -5  15   20.10    9.30
   5  -5 -15   27.80   31.50
  -5  -5  15   17.10   17.80
   5   5 -15   23.70   18.70
  -5   5  15   30.30   13.50
  -5   5  15    4.70    8.60
   5   5 -15   12.60    8.00
  -4  -5  15  225.88   20.20
  -4  -5  15  250.47   39.90
   4  -5 -15  275.37   55.49
   4  -5 -15  216.48   17.20
  -4   5  15  223.28   28.70
   4   5 -15  265.87   22.20
   4   5 -15  216.08   32.40
  -4   5  15  242.38   22.80
  -3  -5  15  521.45   34.00
  -3  -5  15  594.74   46.90
   3  -5 -15  536.75   30.60
   3  -5 -15  593.74   78.99
   3   5 -15  469.15   32.20
   3   5 -15  539.25   46.00
  -3   5  15  492.35   37.20
  -3   5  15  497.85   33.20
   3   5 -15  501.85   45.50
  -2  -5  15   57.69   10.40
  -2  -5  15  105.69   25.10
   2  -5 -15  106.29   38.80
   2  -5 -15   72.39    9.90
  -2   5  15   86.09   14.10
  -2   5  15   90.89   17.80
   2   5 -15   58.89   20.10
  -2   5  15   84.49   29.00
   2   5 -15   67.09   13.70
   1  -5 -15 1142.59   91.19
  -1  -5  15 1102.69   58.29
   1  -5 -15 1019.00   55.59
  -1   5  15  960.50   56.49
   1   5 -15 1076.99   58.69
  -1   5  15 1116.79   61.89
  -1   5  15 1055.19   74.89
   1   5 -15 1071.09   72.89
   0  -5 -15   69.69   10.40
   0  -5  15   69.29   12.80
   0  -5 -15   85.49   33.70
   0   5  15   85.89   16.60
   0   5  15   69.59   10.90
   0   5 -15   89.79   13.80
   0   5 -15   84.29   23.30
  -1  -5 -15  845.72   79.49
   1   5  15  725.43   47.90
  -1   5 -15  779.02   44.30
  -1   5 -15  822.02   99.69
   1   5  15  801.12   44.30
  -2  -5 -15  527.85   31.70
  -2   5 -15  573.44   63.89
   2   5  15  487.85   31.30
  -2   5 -15  521.75   30.40
   2   5  15  391.26   33.80
  -3  -5 -15   31.80   32.50
  -3  -5 -15   68.49   13.00
  -3   5 -15   48.30   24.60
   3   5  15   64.19   11.60
  -3   5 -15   67.19   10.70
   3   5  15   66.79   15.30
  -4  -5 -15  502.85   78.79
  -4  -5 -15  539.25   34.30
  -4   5 -15  427.06   54.89
   4   5  15  482.15   32.70
   4   5  15  442.96   44.10
  -5  -5 -15    0.90    8.20
  -5  -5 -15  -23.40   31.30
  -5   5 -15    5.50   19.80
  -5   5 -15    2.80    5.40
   5   5  15   -2.60   10.30
   8  -6 -15  163.38   56.49
  -8  -6  15  166.68   38.60
  -8   6  15  122.29   27.70
   7  -6 -15    7.70   41.00
  -7  -6  15   -1.10   23.30
   7   6 -15    3.50   14.90
  -7   6  15  -11.10    7.90
  -7   6  15   -7.10   12.90
  -6  -6  15  356.96   27.50
  -6  -6  15  255.97   42.80
  -6   6  15  327.57   34.90
   6   6 -15  390.26   44.10
   6   6 -15  345.77   30.00
  -6   6  15  381.86   29.20
  -5  -6  15   78.39   27.90
  -5  -6  15   99.89   15.50
  -5   6  15  109.29   22.60
   5   6 -15  125.29   26.40
  -5   6  15  131.69   19.30
  -4  -6  15  112.09   17.20
  -4  -6  15  113.39   31.00
   4  -6 -15  104.69   51.19
  -4   6  15  127.19   22.30
   4   6 -15  154.48   29.00
  -4   6  15  109.79   17.50
   4   6 -15  119.19   17.70
  -3  -6  15  284.17   42.70
  -3  -6  15  195.58   19.20
   3  -6 -15  302.97   75.09
   3  -6 -15  198.88   16.60
   3   6 -15  195.98   32.50
  -3   6  15  224.98   19.90
   3   6 -15  214.38   20.70
  -2  -6  15   -3.50    6.40
   2  -6 -15  -20.30   41.10
   2  -6 -15    5.70    4.80
   2   6 -15    8.50   17.50
  -2   6  15  -11.10    7.30
   2   6 -15   -0.80    5.80
  -2   6  15   -0.60    4.70
   1  -6 -15  111.09   14.10
  -1  -6  15  112.39   16.30
  -1   6  15  123.99   20.80
   1   6 -15  122.69   18.50
  -1   6  15   86.59   13.70
   1   6 -15  104.89   27.90
  -1   6  15   77.19   28.80
   0  -6  15   61.59   11.20
   0  -6 -15  115.99   45.60
   0   6  15   69.09   11.30
   0   6  15   84.89   28.10
   0   6 -15   64.79   17.50
   0   6 -15   93.99   26.60
   0   6  15   93.09   17.90
  -1  -6 -15   16.40    6.70
  -1  -6 -15   18.80   28.50
   1   6  15   16.60    7.40
   1   6  15   24.90   12.30
  -1   6 -15   11.60   16.20
  -1   6 -15   23.80    8.00
  -2  -6 -15   -3.20    5.60
  -2  -6 -15  -11.00   27.20
  -2   6 -15  -10.60   14.20
  -2   6 -15    1.70    5.70
   2   6  15   -0.40    6.00
  -3  -6 -15   36.10   10.80
  -3  -6 -15   67.79   39.80
  -3   6 -15   43.30    9.30
   3   6  15   32.00    9.90
   3   6  15   46.40   14.40
  -3   6 -15   66.59   25.60
  -4  -6 -15   42.80   12.10
  -4  -6 -15  101.59   47.30
   4   6  15   47.60   13.60
  -4   6 -15   59.29    9.60
  -4   6 -15   39.40   23.50
  -7  -7  15    9.00   22.20
  -7   7  15    6.50   10.70
   7   7 -15  -13.00   15.10
  -7   7  15   -8.10   13.60
  -6  -7  15   87.19   30.60
  -6   7  15   65.99   20.30
   6   7 -15   98.89   24.40
  -6   7  15  125.69   19.60
   6   7 -15  112.39   18.30
  -5  -7  15   21.00    8.40
  -5  -7  15   -3.00   19.20
  -5   7  15   15.50   10.00
   5   7 -15   23.80   17.40
   5   7 -15   13.40    9.90
  -5   7  15   26.60   16.10
  -4  -7  15  299.07   42.10
  -4  -7  15  266.57   22.90
   4   7 -15  235.38   23.60
  -4   7  15  247.88   22.50
  -4   7  15  249.38   33.70
   4   7 -15  231.08   35.40
  -3  -7  15  431.46   29.90
   3  -7 -15  344.37   30.50
  -3  -7  15  405.66   49.40
   3   7 -15  666.63   87.09
   3   7 -15  425.66   31.30
  -3   7  15  409.46   28.90
  -3   7  15  455.25   36.60
  -2  -7  15   68.39   25.50
  -2  -7  15   86.59   14.30
   2  -7 -15   74.39   17.80
  -2   7  15   95.19   20.40
   2   7 -15   39.10   10.60
  -2   7  15   65.89   11.70
   2   7 -15   40.90   19.80
  -1  -7  15  848.02   48.90
  -1  -7  15  783.32   62.59
   1  -7 -15  831.52   47.70
   1  -7 -15  786.12   96.99
  -1   7  15  897.91   55.29
  -1   7  15  807.92   47.70
   1   7 -15  923.11   64.69
   1   7 -15  899.11   50.49
   0  -7 -15   87.49   42.50
   0  -7 -15   81.09   12.50
   0   7 -15   82.69   14.60
   0   7 -15  107.79   27.90
   0   7  15  115.79   15.50
   0   7  15  106.09   21.30
   0   7  15   93.09   23.20
  -1  -7 -15  529.15   80.99
  -1  -7 -15  439.46   30.80
  -1   7 -15  464.05   30.70
   1   7  15  450.95   36.90
   1   7  15  452.15   30.00
  -1   7 -15  503.55   47.30
  -2  -7 -15  413.86   71.59
   2   7  15  416.86   35.50
   2   7  15  401.76   28.70
  -2   7 -15  469.05   29.30
  -2   7 -15  478.25   56.09
  -3  -7 -15   17.00   35.60
  -3  -7 -15   30.40   10.10
  -3   7 -15   28.00    7.80
  -3   7 -15   25.80   19.50
   3   7  15   32.10   14.60
  -4  -7 -15  416.36   75.79
   4   7  15  459.35   37.60
  -4   7 -15  517.95   29.40
  -4   7 -15  394.66   54.09
  -6  -8  15  284.27   48.10
   6   8 -15  211.38   41.00
  -6   8  15  279.47   27.00
  -6   8  15  246.08   35.20
  -5  -8  15  100.59   30.30
  -5   8  15   89.39   22.70
   5   8 -15  105.89   26.10
   5   8 -15   89.99   18.20
  -5   8  15   97.39   17.30
  -4  -8  15   42.20   11.60
  -4  -8  15   80.39   29.00
  -4   8  15   91.09   16.30
  -4   8  15   68.99   20.30
   4   8 -15   68.69   22.20
   4   8 -15   61.69   13.40
  -3  -8  15  146.79   32.10
  -3  -8  15  153.18   20.40
   3   8 -15  141.99   20.40
  -3   8  15  216.18   31.20
  -3   8  15  171.48   19.30
   3   8 -15  174.98   32.70
   2  -8 -15    0.70    6.80
  -2  -8  15   -4.30   18.00
  -2  -8  15    4.10    7.80
  -2   8  15   12.20   12.20
   2   8 -15    9.30    8.30
   2   8 -15  -12.00   13.80
  -1  -8  15   49.90   24.10
   1  -8 -15   60.09   13.00
   1   8 -15   37.60   11.70
  -1   8  15   85.69   20.20
  -1   8  15   63.29   12.50
   1   8 -15  109.49   28.00
   0  -8 -15   53.09   11.90
   0  -8 -15   75.99   37.00
   0   8  15  100.89   20.60
   0   8 -15   50.19   11.20
   0   8  15   63.29   11.60
   0   8 -15   81.19   25.00
  -1  -8 -15  -17.30   31.40
  -1  -8 -15   -0.70    6.70
   1   8  15    6.30    7.20
  -1   8 -15   -8.10   14.80
   1   8  15    3.30   11.90
  -1   8 -15   -0.30    7.00
  -2  -8 -15   18.80   37.60
  -2   8 -15   -8.80    8.00
  -2   8 -15   -8.60   16.00
   2   8  15   -9.60   11.10
   2   8  15   -2.30    5.70
  -3  -8 -15   38.40   40.70
   3   8  15   33.90   15.20
  -3   8 -15   41.50    9.80
  -3   8 -15   19.30   21.60
  -5  -9  15   53.69   30.10
   5   9 -15    5.60    9.60
  -5   9  15   30.60   18.70
   5   9 -15   -4.10   16.70
  -5   9  15    7.90    9.60
  -4  -9  15  173.58   37.10
   4   9 -15  156.68   32.00
   4   9 -15  144.59   21.50
   4   9 -15  121.79   16.10
  -4   9  15  154.28   28.80
  -4   9  15  115.59   17.20
  -3  -9  15  241.08   40.50
  -3   9  15  181.98   28.80
   3   9 -15  313.87   42.80
  -3   9  15  226.78   21.50
   3   9 -15  207.28   26.00
  -2  -9  15   25.80   23.20
  -2   9  15   25.50   16.10
   2   9 -15   38.60   20.40
  -2   9  15   48.00   10.80
   2   9 -15   32.20   12.10
  -1  -9  15  441.16   54.39
  -1   9  15  496.75   32.60
  -1   9  15  492.55   40.90
   1   9 -15  546.55   50.09
   1   9 -15  462.75   34.20
   0  -9  15   49.99   26.60
   0   9  15   51.79   11.20
   0   9 -15   39.30   10.70
   0   9 -15   48.00   21.80
   0   9  15   28.60   16.10
  -1  -9 -15  330.97   70.69
  -1   9 -15  346.87   27.40
   1   9  15  392.16   27.10
  -1   9 -15  354.06   48.50
   1   9  15  291.77   36.60
  -9   0  16   21.00   10.30
  -9   0  16   -2.00   23.30
   8   0 -16  163.18   41.70
  -8   0  16  138.39   17.40
  -8   0  16  189.88   50.99
  -7   0  16  114.19   15.30
   7   0 -16  133.69   35.90
  -7   0  16  129.89   27.50
   6   0 -16  126.19   17.80
   6   0 -16  169.48   39.70
  -6   0  16  119.09   17.10
  -6   0  16  129.49   27.50
  -6   0  16   99.59   21.10
   5   0 -16  172.58   38.90
  -5   0  16  199.08   29.40
  -5   0  16  151.68   23.70
  -5   0  16  155.68   19.80
   5   0 -16  167.58   20.80
   4   0 -16   26.90    7.90
  -4   0  16   27.00   12.30
  -4   0  16   30.30    9.60
   4   0 -16   41.00   25.50
  -4   0  16   45.10   19.00
  -3   0  16   52.09   18.70
  -3   0  16  150.68   20.20
  -3   0  16  111.69   17.20
   3   0 -16  114.39   15.30
   3   0 -16  109.89   34.90
   2   0 -16   99.79   14.90
  -2   0  16   85.79   13.80
   2   0 -16  119.59   33.70
  -2   0  16  107.09   15.70
   2   0 -16   88.79   12.50
   1   0 -16   52.29   25.20
  -1   0  16   40.70   10.10
   1   0 -16   32.70    7.10
   1   0 -16   40.60    9.00
  -1   0  16   39.90    9.60
   0   0 -16    0.10    4.50
   0   0  16    9.50    7.60
   0   0 -16   13.30   20.30
   1   0  16   79.69   13.20
  -1   0 -16  103.79   12.30
  -1   0 -16  123.89   33.50
   2   0  16  241.68   21.60
  -2   0 -16  214.28   17.30
  -2   0 -16  234.28   45.80
   3   0  16    9.90    9.30
  -3   0 -16    9.00    5.90
  -3   0 -16  -12.10   22.10
  -4   0 -16  191.68   50.79
  -4   0 -16  216.98   18.20
  -5   0 -16   70.09   13.20
  -5   0 -16   80.29   35.50
  -6   0 -16  119.39   38.80
  -9  -1  16   -2.90    7.50
  -9  -1  16   -1.50   23.40
  -9   1  16   -6.00   24.80
  -9   1  16   -5.20    6.90
   8  -1 -16  116.59   40.50
  -8  -1  16  118.49   31.10
  -8  -1  16  101.39   16.00
  -8   1  16  135.99   32.50
  -8   1  16   97.79   16.60
  -7  -1  16   15.20   19.30
  -7  -1  16   11.30    7.70
   7  -1 -16  -16.70   25.10
  -7   1  16    9.60    8.30
  -7   1  16   16.80   14.40
  -7   1  16   20.30   20.30
   7   1 -16  -16.90   20.80
   7   1 -16    3.00    8.70
  -6  -1  16  109.49   15.50
   6  -1 -16  161.98   19.70
   6  -1 -16  160.38   40.00
  -6  -1  16  180.88   31.50
  -6   1  16  133.69   23.20
   6   1 -16   99.69   15.30
  -6   1  16   78.69   23.40
   6   1 -16  160.38   36.50
  -6   1  16  151.98   19.20
  -5  -1  16  378.46   37.30
   5  -1 -16  334.27   25.10
  -5  -1  16  333.27   26.10
   5  -1 -16  329.57   53.99
  -5   1  16  399.46   27.80
   5   1 -16  352.46   26.90
   5   1 -16  207.48   40.80
  -5   1  16  362.86   31.00
  -5   1  16  441.46   36.80
  -4  -1  16   35.90   12.70
   4  -1 -16   16.00    7.10
  -4  -1  16   38.20   18.60
   4  -1 -16   12.00   21.20
  -4  -1  16   17.50   14.80
  -4   1  16   31.00   11.50
   4   1 -16   45.40   25.30
  -4   1  16   17.40   16.50
   4   1 -16   18.60    8.70
  -4   1  16   40.90   12.30
  -3  -1  16 1282.67   68.49
   3  -1 -16 1263.17   93.89
  -3  -1  16 1240.28   68.59
  -3  -1  16 1181.38   76.49
  -3   1  16 1245.58   68.79
  -3   1  16 1227.78   68.99
   3   1 -16 1456.75   91.59
  -3   1  16 1280.67   75.39
   3   1 -16 1265.57   67.29
   2  -1 -16  192.58   15.80
  -2  -1  16  155.38   18.40
   2  -1 -16  203.88   42.50
  -2  -1  16  186.38   17.80
   2   1 -16  170.98   18.80
   2   1 -16  206.28   18.50
  -2   1  16  186.58   18.60
  -2   1  16  210.48   22.40
   2   1 -16  228.68   40.00
   1  -1 -16  854.11   70.99
   1  -1 -16  733.13   43.70
  -1  -1  16  810.92   45.40
   1   1 -16  688.53   41.70
  -1   1  16  762.52   44.70
  -1   1  16  726.63   43.20
   1   1 -16  794.02   65.09
   0  -1  16  587.94   36.00
   0  -1 -16  519.75   30.90
   0  -1 -16  423.46   60.39
   0  -1 -16  524.25   31.70
   0   1  16  551.04   35.10
   0   1 -16  541.05   32.20
   0   1  16  589.14   36.10
   0   1 -16  554.94   55.39
  -1  -1 -16  110.39   36.80
  -1  -1 -16  124.39   12.30
  -1  -1 -16  124.69   13.20
   1  -1  16  104.39   15.80
  -1   1 -16  131.89   12.70
   1   1  16  133.39   18.30
   1   1  16  144.89   16.90
  -1   1 -16  147.79   36.00
   2  -1  16  828.92   57.99
  -2  -1 -16  786.02   43.20
  -2  -1 -16  747.03   70.99
  -2   1 -16  831.12   43.40
   2   1  16  665.83   44.90
  -2   1 -16  881.71   70.89
  -3  -1 -16   83.39   11.60
  -3  -1 -16   59.09   30.10
  -3   1 -16   77.09   11.10
   3   1  16   65.19   14.50
  -3   1 -16  101.49   32.10
  -4  -1 -16  325.07   74.69
  -4  -1 -16  318.57   22.60
  -4   1 -16  272.77   21.00
  -4   1 -16  217.08   43.50
  -5  -1 -16   83.69   14.80
  -5  -1 -16  157.88   44.30
  -5   1 -16   79.99   32.60
  -5   1 -16   68.69   12.50
  -6  -1 -16  -20.50   27.80
  -6  -1 -16    7.80    8.80
  -6   1 -16    9.50   28.50
  -6   1 -16    5.20    8.30
  -9  -2  16    1.70    8.20
  -9  -2  16    3.20   26.00
  -9   2  16   10.60    8.80
  -9   2  16   14.70   37.90
  -8  -2  16  300.37   24.70
  -8  -2  16  200.68   39.60
   8  -2 -16  253.17   54.29
  -8   2  16  294.97   23.40
  -8   2  16  208.28   32.90
  -8   2  16  309.77   41.90
  -7  -2  16  147.99   19.30
  -7  -2  16  125.39   29.40
   7  -2 -16  141.69   41.80
   7   2 -16  170.48   33.40
  -7   2  16  203.08   19.30
  -7   2  16  182.28   30.20
  -7   2  16  113.39   23.80
   7   2 -16  136.89   31.20
  -6  -2  16  120.89   17.40
   6  -2 -16   89.89   35.10
   6  -2 -16  133.49   17.00
  -6  -2  16  188.28   32.40
  -6   2  16  150.78   18.80
  -6   2  16  165.58   28.00
   6   2 -16  181.88   33.90
   6   2 -16  139.29   18.80
  -5  -2  16  324.87   40.40
   5  -2 -16  344.77   56.59
   5  -2 -16  335.37   24.70
  -5  -2  16  309.77   25.70
  -5   2  16  361.76   31.10
  -5   2  16  426.36   35.90
  -5   2  16  372.26   27.50
   5   2 -16  366.66   27.90
   5   2 -16  367.26   48.20
   4  -2 -16   17.10    7.00
  -4  -2  16   17.40   15.20
   4  -2 -16   15.40   26.10
  -4  -2  16   18.30    8.50
   4   2 -16   -2.40   15.90
   4   2 -16   -1.10    5.40
  -4   2  16    5.00   14.20
  -4   2  16  -10.60    7.00
  -4   2  16   -3.60    5.90
  -3  -2  16  152.28   27.80
   3  -2 -16  230.28   48.20
  -3  -2  16  127.59   16.00
   3  -2 -16  162.08   14.60
  -3   2  16  185.98   21.00
   3   2 -16  230.18   41.60
  -3   2  16  162.88   22.00
  -3   2  16  168.98   25.10
   2  -2 -16   48.70    9.50
   2  -2 -16    6.80   19.90
  -2   2  16   45.60   12.00
  -2   2  16   59.29   12.90
   2   2 -16   33.20    9.50
   2   2 -16   62.09   12.10
   2   2 -16   59.39   25.20
   1  -2 -16   20.50   22.70
   1  -2 -16   13.50    5.10
  -1  -2  16   17.30    7.90
  -1   2  16   11.40    7.50
   1   2 -16   29.60   20.30
   1   2 -16   21.70    7.10
  -1   2  16   12.90    8.40
   0  -2 -16   19.80   23.20
   0  -2 -16    5.90    5.00
   0  -2  16    6.80    7.20
   0   2  16    7.70    6.20
   0   2 -16   20.60   18.70
   0   2 -16   21.80    6.70
   0   2  16   11.70    8.00
  -1  -2 -16  134.99   37.50
  -1  -2 -16  120.89   14.50
   1  -2  16  141.79   19.50
  -1   2 -16  130.49   32.10
   1   2  16  138.59   19.30
  -1   2 -16  158.98   14.10
   1   2  16  163.88   19.00
   2  -2  16  211.18   20.70
  -2  -2 -16  203.78   46.90
  -2  -2 -16  174.18   16.10
  -2   2 -16  216.88   16.30
  -2   2 -16  228.18   42.90
   2   2  16  160.38   18.90
   2   2  16  192.98   19.10
  -3  -2 -16   29.90   27.40
  -3  -2 -16   13.20    6.20
  -3   2 -16   27.70    7.40
   3   2  16   22.00   10.40
   3   2  16   19.70    9.50
  -4  -2 -16  286.27   37.80
  -4  -2 -16  270.87   53.49
   4   2  16  255.07   23.30
   4   2  16  236.28   22.40
  -4   2 -16  175.88   40.20
  -4   2 -16  245.38   18.90
  -5  -2 -16   42.20   32.10
  -5  -2 -16   30.20   10.80
   5   2  16   25.90   11.70
  -5   2 -16   34.70    9.30
  -5   2 -16   38.80   25.90
   9  -3 -16   -3.50   41.80
  -9  -3  16   -1.00   26.20
  -9  -3  16   -5.30    8.00
  -9   3  16   -0.60   16.70
  -9   3  16  -16.60   23.60
  -9   3  16   -3.20    7.00
  -8  -3  16   58.79   29.40
   8  -3 -16   72.49   45.80
  -8  -3  16   60.29   14.30
  -8   3  16   46.00   19.10
  -8   3  16   77.29   27.20
  -8   3  16   68.09   12.90
  -7  -3  16   13.10    8.10
   7  -3 -16    9.40   32.10
  -7  -3  16    4.30   19.40
   7   3 -16    9.20   10.60
  -7   3  16   12.50    8.70
  -7   3  16    2.40   12.70
  -7   3  16   13.00   18.20
   7   3 -16    8.50   19.90
  -6  -3  16  240.48   38.30
  -6  -3  16  244.38   21.10
   6  -3 -16  234.78   53.79
   6   3 -16  239.18   36.20
  -6   3  16  275.77   32.60
  -6   3  16  151.48   26.10
  -6   3  16  233.98   22.40
   6   3 -16  155.78   20.80
   5  -3 -16  376.06   25.80
   5  -3 -16  394.46   63.69
  -5  -3  16  270.17   39.40
  -5  -3  16  489.25   40.00
  -5   3  16  412.66   29.90
  -5   3  16  381.46   33.10
   5   3 -16  379.76   46.90
  -5   3  16  505.45   37.60
   5   3 -16  381.06   29.60
  -4  -3  16   27.00   19.20
   4  -3 -16   14.00   27.40
   4  -3 -16   36.30    7.80
  -4  -3  16   38.20   11.20
   4   3 -16   -3.00   15.20
   4   3 -16   27.40   10.50
  -4   3  16   29.80   10.80
  -4   3  16   47.90   14.10
  -4   3  16   35.30   16.30
   3  -3 -16 1563.74   79.89
  -3  -3  16 1512.05   93.69
  -3  -3  16 1691.93   83.69
   3  -3 -16 1827.22  116.99
  -3   3  16 1606.94   83.69
   3   3 -16 1524.05   82.89
  -3   3  16 1636.34   88.09
   3   3 -16 1598.94   99.69
  -3   3  16 1596.14   85.49
   3   3 -16 1445.16   80.69
  -2  -3  16  107.39   15.20
   2  -3 -16   67.09   30.40
   2  -3 -16   98.49   12.70
   2   3 -16  119.09   29.70
   2   3 -16  121.89   18.00
  -2   3  16   93.09   16.70
  -2   3  16   97.09   15.10
   1  -3 -16 1061.99   55.09
   1  -3 -16 1135.49   88.59
  -1  -3  16 1061.89   58.19
  -1   3  16  937.21   56.69
   1   3 -16 1056.29   57.09
   1   3 -16  982.10   74.09
  -1   3  16 1089.79   59.09
   0  -3 -16  605.84   77.49
   0  -3  16  619.74   37.70
   0   3 -16  600.54   35.50
   0   3  16  570.24   37.40
   0   3 -16  618.74   54.99
   0   3  16  552.74   36.10
  -1  -3 -16  176.28   14.80
   1  -3  16  148.19   18.70
  -1  -3 -16  181.28   46.30
  -1   3 -16  173.48   34.50
   1   3  16  129.59   18.90
   1   3  16  175.68   20.50
  -1   3 -16  175.58   15.40
  -2  -3 -16  818.92   79.19
  -2  -3 -16  907.11   49.00
  -2   3 -16 1004.10  116.49
   2   3  16  830.82   51.09
  -2   3 -16  942.71   48.30
   2   3  16  846.62   50.09
  -3  -3 -16   54.99   10.70
   3   3  16   64.79   13.60
   3   3  16   85.29   16.80
  -3   3 -16   93.99   29.40
  -3   3 -16   89.29   11.90
  -4  -3 -16  208.68   20.50
  -4  -3 -16  231.98   51.39
  -4   3 -16  250.97   18.40
   4   3  16  235.58   22.90
  -4   3 -16  232.38   43.50
   4   3  16  206.88   24.40
  -5  -3 -16  108.19   41.60
  -5  -3 -16   79.89   15.20
   5   3  16   59.89   14.50
  -5   3 -16   62.79   28.20
  -5   3 -16   89.09   12.70
  -8  -4  16  258.07   23.10
  -8  -4  16  189.88   40.40
   8  -4 -16  176.68   54.49
  -8   4  16  230.98   37.60
  -8   4  16  277.07   38.40
  -8   4  16  164.78   22.70
   7  -4 -16   41.20   39.90
  -7  -4  16  114.99   17.10
  -7  -4  16   75.79   28.20
   7   4 -16   79.29   15.90
  -7   4  16  100.79   24.30
   7   4 -16   77.69   24.30
  -7   4  16   95.29   16.60
  -7   4  16  129.29   26.20
  -6  -4  16  128.49   31.90
   6  -4 -16   74.89   41.30
  -6  -4  16  125.69   18.50
  -6   4  16  107.29   22.50
   6   4 -16   77.49   15.80
   6   4 -16  100.89   25.50
  -6   4  16   75.49   15.00
  -6   4  16  106.09   23.40
  -5  -4  16  294.77   24.90
   5  -4 -16  259.67   56.79
  -5  -4  16  365.66   47.70
  -5   4  16  343.87   31.50
  -5   4  16  372.86   28.00
   5   4 -16  362.06   44.40
  -5   4  16  263.97   40.60
   5   4 -16  312.77   26.80
   4  -4 -16   48.70   33.50
  -4  -4  16   20.90   18.50
  -4  -4  16   28.20   10.00
  -4   4  16    4.00   10.60
   4   4 -16    2.30   15.60
  -4   4  16    8.80   13.10
  -4   4  16    7.30    9.80
  -3  -4  16  100.69   25.80
   3  -4 -16   89.39   12.20
  -3  -4  16   79.59   14.00
   3  -4 -16   67.09   37.40
  -3   4  16  110.09   15.50
   3   4 -16  124.79   16.50
   3   4 -16   91.89   16.10
  -3   4  16   91.09   17.60
  -3   4  16  112.09   36.20
   3   4 -16  110.29   27.60
  -3   4  16  102.59   19.90
  -2  -4  16   17.80    8.80
   2  -4 -16   16.30    6.10
  -2  -4  16   -4.90   15.90
   2  -4 -16   27.80   27.20
  -2   4  16   17.00   28.60
   2   4 -16   26.60   18.70
  -2   4  16   21.20   10.40
   2   4 -16   21.50    8.10
  -2   4  16    7.10    6.50
   1  -4 -16   10.50    5.00
   1  -4 -16    3.40   23.60
  -1  -4  16   11.60    7.20
   1   4 -16   17.20    8.20
  -1   4  16   13.00    9.50
   1   4 -16   11.90   16.60
  -1   4  16    9.90    6.70
   0  -4 -16   39.00   27.50
   0  -4 -16   -0.10    4.10
   0  -4  16   -0.60    5.70
   0   4 -16    2.40   15.90
   0   4  16   -0.10    7.70
   0   4  16   -0.70    5.10
   0   4 -16   -2.40    4.60
   1  -4  16  118.79   16.80
  -1  -4 -16  111.49   15.00
  -1  -4 -16  112.89   40.30
   1   4  16  120.59   15.20
   1   4  16  120.09   18.50
  -1   4 -16  123.09   17.90
  -2  -4 -16  265.47   71.49
  -2  -4 -16  176.88   17.40
   2   4  16  196.48   23.60
   2   4  16  217.18   31.80
  -2   4 -16  233.38   17.50
  -2   4 -16  189.38   38.70
  -3  -4 -16    9.30    7.40
  -3  -4 -16   59.39   33.30
  -3   4 -16    4.40    5.00
   3   4  16    1.40   10.70
  -3   4 -16   13.60   19.70
   3   4  16    7.70    7.10
  -4  -4 -16  233.58   21.70
  -4  -4 -16  252.77   55.79
   4   4  16  263.57   25.00
  -4   4 -16  263.67   18.80
   4   4  16  161.98   21.60
  -4   4 -16  218.68   41.80
  -5  -4 -16   -3.00   33.60
  -5  -4 -16   22.10   10.20
   5   4  16    9.00   16.50
  -5   4 -16   27.70   23.60
  -5   4 -16   27.10    8.60
  -8  -5  16   55.19   13.20
   8  -5 -16   80.09   51.09
  -8  -5  16   43.30   27.60
  -8   5  16   42.70   20.30
   8   5 -16   61.99   22.40
  -8   5  16   47.90   13.00
   7  -5 -16   51.09   42.50
  -7  -5  16    1.00   23.60
  -7  -5  16    5.00    8.60
   7   5 -16   10.40   14.60
   7   5 -16   24.30   19.40
  -7   5  16    7.60    9.50
  -7   5  16   25.60   17.40
  -6  -5  16  137.19   22.10
  -6  -5  16  150.28   33.70
   6  -5 -16  161.78   52.19
  -6   5  16  136.09   19.10
   6   5 -16  193.38   31.60
  -6   5  16  173.78   28.10
   6   5 -16  144.49   22.80
   5  -5 -16  272.77   59.39
  -5  -5  16  274.57   42.30
  -5  -5  16  233.98   22.10
  -5   5  16  213.48   30.00
  -5   5  16  280.57   24.90
   5   5 -16  201.78   34.60
   5   5 -16  280.07   24.80
  -4  -5  16   37.10   11.30
   4  -5 -16   22.20   30.70
  -4  -5  16   54.19   22.40
   4  -5 -16   37.70    8.40
   4   5 -16   34.60   18.50
  -4   5  16   52.39   18.70
  -4   5  16   55.69   13.70
   4   5 -16   37.00   10.20
   3  -5 -16  885.71   51.99
  -3  -5  16  984.80   59.99
   3  -5 -16 1211.18   95.29
  -3   5  16  977.60   55.89
   3   5 -16  991.10   57.49
  -3   5  16  966.10  115.49
  -3   5  16  974.00   59.79
   3   5 -16 1123.79   72.09
  -3   5  16 1099.19   58.39
   3   5 -16  911.21   53.89
   2  -5 -16   53.19   34.80
  -2  -5  16   18.90   20.90
   2  -5 -16   33.30    7.80
  -2  -5  16   16.00    6.70
  -2   5  16   35.60    9.00
  -2   5  16   59.99   28.90
   2   5 -16   85.99   25.50
  -2   5  16   41.20   13.40
   2   5 -16   49.70   11.00
   1  -5 -16  803.62   44.70
   1  -5 -16 1005.20  142.29
  -1  -5  16  832.82   47.40
  -1   5  16  831.32   50.49
  -1   5  16  761.92   46.00
   1   5 -16  812.42   47.40
   1   5 -16  780.32   62.49
  -1   5  16  719.03   69.79
   0  -5 -16  501.05   84.79
   0  -5  16  590.74   35.70
   0  -5 -16  540.75   33.00
   0   5  16  555.04   38.30
   0   5 -16  621.44   55.99
   0   5 -16  488.05   33.70
   0   5  16  535.15   34.00
  -1  -5 -16  116.19   41.70
   1   5  16  108.19   19.30
  -1   5 -16  112.29   14.70
   1   5  16  100.69   14.00
  -1   5 -16   61.19   25.30
  -2  -5 -16  610.54   81.39
  -2  -5 -16  579.94   36.10
   2   5  16  574.24   40.40
   2   5  16  522.25   35.60
  -2   5 -16  608.94   34.90
  -2   5 -16  704.23   58.39
  -3  -5 -16   25.20   31.40
  -3  -5 -16   32.20   10.20
   3   5  16   49.20   11.00
   3   5  16   39.00   14.50
  -3   5 -16   46.50    9.40
  -3   5 -16   36.30   24.00
  -4  -5 -16  213.68   57.29
  -4  -5 -16  138.19   19.00
  -4   5 -16  158.38   36.00
  -4   5 -16  197.48   16.20
   4   5  16  198.28   24.90
  -7  -6  16   38.70   11.60
  -7  -6  16   54.29   28.10
   7  -6 -16   48.90   43.10
  -7   6  16   56.89   14.70
  -7   6  16   42.20   19.60
   7   6 -16   49.99   22.20
  -6  -6  16   72.49   29.20
   6  -6 -16   82.09   46.80
  -6  -6  16   70.29   14.60
  -6   6  16   82.89   22.40
  -6   6  16   55.19   14.50
   6   6 -16   80.89   24.30
   6   6 -16   52.49   13.50
   5  -6 -16  213.08   56.29
  -5  -6  16  232.68   39.80
  -5  -6  16  215.78   24.80
   5   6 -16  164.38   30.80
  -5   6  16  193.08   30.20
  -5   6  16  177.88   22.80
  -4  -6  16   -5.70   16.50
  -4  -6  16    0.20    6.30
   4  -6 -16  -14.00   29.50
   4   6 -16   -0.30    6.70
  -4   6  16    1.30    7.60
  -4   6  16   -3.90   10.70
   4   6 -16   -1.40   15.20
  -3  -6  16   66.89   24.40
   3  -6 -16   43.60   36.20
  -3  -6  16   32.00    9.70
   3  -6 -16   29.20    7.60
  -3   6  16   53.79   16.40
   3   6 -16   55.59   14.40
   3   6 -16    7.30   18.90
  -3   6  16   41.40   10.70
   2  -6 -16   17.70    6.60
  -2  -6  16   19.40    8.80
   2  -6 -16   -5.00   26.40
  -2  -6  16   10.30   18.90
  -2   6  16   17.60    7.80
   2   6 -16    4.30   16.60
   2   6 -16   17.50    9.70
  -2   6  16   28.70   14.70
   1  -6 -16   -6.30   24.10
  -1  -6  16   13.80   16.30
   1  -6 -16    8.20    5.70
  -1   6  16   11.80    6.90
   1   6 -16   28.00    9.60
   1   6 -16   14.70   17.40
  -1   6  16   21.00   20.60
   0  -6 -16   -7.70   27.00
   0  -6 -16   -0.60    5.40
   0   6 -16    4.10    7.30
   0   6 -16   -1.20   15.00
   0   6  16   -3.40    6.60
  -1  -6 -16   65.59   12.10
  -1  -6 -16   86.99   40.40
   1   6  16   54.99   20.20
   1   6  16   45.20    9.70
  -1   6 -16   50.09   10.40
  -1   6 -16   42.30   20.50
  -2  -6 -16  143.29   47.40
  -2  -6 -16   85.59   13.70
  -2   6 -16  126.09   31.30
  -2   6 -16  115.99   14.40
   2   6  16  136.19   21.60
   2   6  16  100.89   15.10
  -3  -6 -16   -8.10    5.50
  -3  -6 -16   -1.30   31.00
  -3   6 -16   -3.20    4.90
  -3   6 -16   -6.20   16.30
   3   6  16   -5.10   11.00
  -4  -6 -16  177.88   53.29
  -4  -6 -16  164.48   21.20
   4   6  16  193.88   25.90
  -4   6 -16  173.28   37.30
  -4   6 -16  210.58   17.00
   6  -7 -16   42.70   43.90
  -6  -7  16  114.99   32.00
   6   7 -16  128.89   29.70
  -6   7  16  131.99   26.50
  -6   7  16   98.09   22.10
   5  -7 -16  210.58   54.49
  -5  -7  16  230.68   21.80
  -5  -7  16  158.58   36.10
  -5   7  16  191.58   29.90
   5   7 -16  149.49   20.50
  -5   7  16  235.78   27.00
   5   7 -16  248.48   49.99
   4  -7 -16   23.80   36.20
  -4  -7  16   25.10   24.10
  -4  -7  16   20.90   10.20
   4   7 -16   16.20    9.30
  -4   7  16   38.70   16.90
  -4   7  16   27.40   11.10
   4   7 -16   46.30   20.40
  -3  -7  16  588.04   38.90
   3  -7 -16  646.24   87.59
  -3  -7  16  582.14   53.99
   3   7 -16  559.24   39.50
  -3   7  16  659.73   45.80
   3   7 -16  646.14   53.09
  -3   7  16  592.64   38.40
  -2  -7  16   63.19   12.90
  -2  -7  16   68.89   26.10
   2  -7 -16   73.09   39.40
   2   7 -16   38.60   11.10
   2   7 -16   82.09   23.40
  -2   7  16   52.99   16.30
  -2   7  16   51.99   11.10
   1  -7 -16  424.06   69.39
  -1  -7  16  505.75   32.90
  -1  -7  16  452.85   52.59
   1  -7 -16  471.35   30.80
  -1   7  16  450.55   37.10
  -1   7  16  471.15   31.20
   1   7 -16  443.56   33.70
   1   7 -16  423.16   52.69
   0  -7 -16  587.24   83.29
   0  -7 -16  492.45   33.60
   0   7  16  542.15   33.90
   0   7  16  474.05   39.50
   0   7 -16  542.45   35.20
   0   7 -16  580.24   51.69
  -1  -7 -16   41.00   11.60
  -1  -7 -16   33.60   35.60
   1   7  16   30.30   15.10
  -1   7 -16   33.30   19.50
  -1   7 -16   55.39   12.10
   1   7  16   48.30   10.10
  -2  -7 -16  478.05   78.49
   2   7  16  531.95   34.20
  -2   7 -16  560.64   53.59
  -2   7 -16  513.15   32.90
   2   7  16  504.95   40.40
  -3  -7 -16   49.30   40.30
   3   7  16   31.20   16.90
  -3   7 -16   20.10    7.00
  -3   7 -16   24.60   20.70
  -5  -8  16  123.59   34.70
  -5   8  16  122.79   26.80
   5   8 -16  125.89   29.50
  -5   8  16  140.79   20.60
  -4  -8  16   31.60   25.50
   4   8 -16   -2.90    8.20
  -4   8  16    1.50    8.50
   4   8 -16   -7.20   16.80
  -4   8  16   11.30   14.10
  -3  -8  16   42.20   25.70
   3   8 -16   63.69   24.10
  -3   8  16   51.79   17.40
  -3   8  16   45.30   12.20
   3   8 -16   63.99   15.50
  -2  -8  16   38.20   24.00
   2  -8 -16   29.20    9.90
  -2  -8  16   21.90    9.60
   2   8 -16   50.09   22.60
  -2   8  16   49.20   17.00
   2   8 -16   51.09   12.40
   1  -8 -16  -18.40   25.80
   1  -8 -16   -2.70    6.40
  -1  -8  16   11.10   21.80
   1   8 -16    9.20   16.30
   1   8 -16    0.00    7.00
  -1   8  16   11.50   13.70
  -1   8  16   10.20    7.90
   0  -8 -16    2.80   10.20
   0  -8 -16  -22.20   28.20
   0   8  16    9.00   12.10
   0   8 -16   -7.70    6.60
   0   8 -16  -10.90   15.10
   0   8  16    0.50    6.90
  -1  -8 -16   45.30   43.30
  -1   8 -16   39.10   10.80
   1   8  16   45.90   11.00
  -1   8 -16   61.99   25.80
   1   8  16   45.80   16.00
  -2  -8 -16   75.49   45.40
   2   8  16   41.00   16.90
  -2   8 -16   51.09   11.30
  -2   8 -16  123.79   33.20
  -4  -9  16   20.80   25.50
   4   9 -16   36.00   21.00
   4   9 -16   27.50    9.90
  -4   9  16   32.40   17.20
   4   9 -16   17.30   12.70
  -4   9  16   20.20   10.50
  -3  -9  16  398.06   53.89
   3   9 -16  419.66   49.80
  -3   9  16  420.96   30.60
   3   9 -16  393.86   33.10
  -3   9  16  404.06   38.60
  -2  -9  16   49.99   28.10
  -2   9  16   52.79   12.70
   2   9 -16   42.10   12.70
  -2   9  16   30.80   16.10
   2   9 -16   58.29   23.20
  -1  -9  16  276.17   45.80
  -1   9  16  340.57   34.70
  -1   9  16  372.36   27.30
   1   9 -16  356.86   29.10
   1   9 -16  313.87   44.70
   0  -9 -16  165.58   52.89
   0  -9  16  287.37   46.10
   0   9  16  266.67   34.40
   0   9  16  299.57   24.20
   0   9 -16  269.37   42.10
   0   9 -16  262.27   23.90
  -9   0  17   20.50   26.50
  -9   0  17    8.20    8.90
  -8   0  17   46.00   12.60
   8   0 -17   47.10   35.50
  -8   0  17   76.59   30.00
  -7   0  17   94.19   14.60
   7   0 -17  132.09   37.80
  -7   0  17  120.49   28.90
   6   0 -17   -1.20   24.80
  -6   0  17    5.60   18.60
   6   0 -17    5.60    8.90
  -6   0  17   11.50   12.40
  -6   0  17    2.50    7.90
  -5   0  17   17.20   13.00
   5   0 -17   37.50   29.80
  -5   0  17   39.40   18.10
  -5   0  17   39.00   11.10
   5   0 -17   25.80    9.80
   4   0 -17   16.00   21.50
   4   0 -17   -3.90    5.90
  -4   0  17   -1.60    8.50
  -4   0  17    8.80   15.20
  -4   0  17    4.10    6.60
   3   0 -17   19.00    6.90
  -3   0  17    5.90   16.00
   3   0 -17    8.50   20.30
  -3   0  17   12.60    9.60
  -3   0  17    6.70    6.60
  -2   0  17    1.60    6.40
   2   0 -17    1.00   19.50
  -2   0  17    5.70    7.80
  -1   0  17  112.49   16.30
   1   0 -17   57.69   30.70
   1   0 -17  105.29   13.30
  -1   0  17  126.69   17.60
   1   0 -17  107.99   13.20
   0   0 -17  145.59   13.60
   0   0 -17   98.79   33.40
   0   0  17  144.89   19.00
  -1   0 -17   -4.80   18.20
   1   0  17    1.60    6.80
  -1   0 -17    5.80    5.30
   2   0  17  473.75   32.30
  -2   0 -17  412.56   27.40
  -2   0 -17  439.86   92.29
  -3   0 -17  144.09   21.00
  -3   0 -17  107.39   36.20
   3   0  17   92.39   16.00
  -4   0 -17  179.58   17.10
  -4   0 -17  118.89   37.50
  -5   0 -17  391.86   60.39
  -5   0 -17  295.27   24.50
  -9  -1  17   65.19   32.80
  -9  -1  17   24.20   10.70
  -9   1  17   20.80   10.10
  -9   1  17   48.80   29.50
  -8  -1  17   82.29   30.00
  -8  -1  17  122.79   17.00
   8  -1 -17  100.09   40.20
  -8   1  17   92.39   15.10
  -8   1  17  122.79   34.10
   8   1 -17   76.29   30.70
   7  -1 -17  172.58   44.60
  -7  -1  17  137.39   32.60
  -7  -1  17  127.89   18.00
   7   1 -17  101.69   17.50
  -7   1  17  157.18   31.30
   7   1 -17  123.29   34.70
  -7   1  17  130.79   18.20
  -7   1  17  105.89   22.70
  -6  -1  17   65.69   24.20
   6  -1 -17   63.19   12.50
  -6  -1  17   85.49   15.50
   6  -1 -17   72.19   36.30
  -6   1  17   97.79   25.90
   6   1 -17  106.09   35.20
   6   1 -17   68.89   15.40
  -6   1  17   56.59   12.50
   5  -1 -17  619.04   76.79
   5  -1 -17  557.84   36.20
  -5  -1  17  537.45   48.60
  -5  -1  17  576.64   37.80
   5   1 -17  532.35   37.20
   5   1 -17  642.94   60.99
  -5   1  17  604.24   38.70
  -5   1  17  634.34   42.80
  -5   1  17  606.24   47.90
  -4  -1  17   88.59   17.20
  -4  -1  17  114.89   25.00
   4  -1 -17  140.09   38.80
   4  -1 -17   89.79   13.40
  -4  -1  17  141.99   23.90
  -4   1  17   70.19   20.70
   4   1 -17   84.19   14.10
  -4   1  17   62.59   15.80
  -4   1  17   83.89   15.20
   4   1 -17  132.09   34.10
  -3  -1  17  691.73   44.90
  -3  -1  17  812.62   45.80
   3  -1 -17  847.12   73.59
  -3  -1  17  641.54   53.89
   3  -1 -17  782.62   45.00
  -3   1  17  657.73   51.89
   3   1 -17  719.53   43.50
   3   1 -17  821.52   67.79
  -3   1  17  730.03   51.49
  -3   1  17  765.12   46.30
   2  -1 -17  721.53   41.40
  -2  -1  17  669.53   43.90
   2  -1 -17  766.92   70.19
  -2   1  17  760.02   45.00
   2   1 -17  768.42   42.80
   2   1 -17  799.82   66.99
  -2   1  17  776.02   44.70
   2   1 -17  683.83   42.40
   1  -1 -17  177.78   40.70
  -1  -1  17  146.69   20.50
   1  -1 -17  107.39   12.40
  -1   1  17  132.49   17.00
   1   1 -17  122.99   16.90
   1   1 -17  112.49   32.20
  -1   1  17  109.39   17.30
   0  -1 -17  858.71   77.29
   0  -1 -17  869.81   50.19
   0  -1 -17  890.81   49.90
   0  -1  17  976.60   54.29
   0   1  17  986.00   51.99
   0   1  17  935.01   53.59
   0   1 -17  946.11   50.59
   0   1 -17  936.21   75.89
   1  -1  17   35.70   10.90
  -1  -1 -17   51.39   28.40
  -1  -1 -17   25.40    7.60
   1   1  17   16.40    8.60
  -1   1 -17   57.39   26.70
  -1   1 -17   26.50    7.40
  -2  -1 -17  390.06   24.40
   2  -1  17  349.47   28.00
  -2   1 -17  340.97   23.60
   2   1  17  315.37   26.80
  -3  -1 -17  269.47   21.00
  -3  -1 -17  276.87   51.69
  -3   1 -17  288.87   20.60
  -3   1 -17  327.07   51.39
   3   1  17  235.98   23.70
  -4  -1 -17   29.90    9.30
  -4  -1 -17   50.89   33.60
  -4   1 -17   37.20    9.30
  -4   1 -17   63.29   29.70
  -5  -1 -17   26.90    9.70
  -5  -1 -17   45.30   35.10
  -5   1 -17   44.60   11.20
  -5   1 -17   37.90   30.50
  -8  -2  17   77.39   15.60
   8  -2 -17   19.10   39.50
  -8  -2  17   77.29   30.30
  -8   2  17   66.49   22.70
  -8   2  17   65.59   14.40
   8   2 -17   72.19   29.70
  -8   2  17   60.59   26.80
   7  -2 -17  192.68   48.80
  -7  -2  17  175.58   20.60
  -7  -2  17  195.08   36.80
   7   2 -17  192.88   36.80
  -7   2  17  157.18   27.60
  -7   2  17  169.28   21.40
   7   2 -17  130.39   29.20
  -7   2  17  194.28   32.30
   6  -2 -17  -20.50   28.10
  -6  -2  17   13.80   34.80
   6  -2 -17   -4.00    6.70
  -6  -2  17    3.40    7.20
  -6   2  17   -3.70   15.90
   6   2 -17    5.60   20.30
  -6   2  17    4.30    8.40
   6   2 -17   -2.40    7.70
  -6   2  17   -7.60   10.60
  -5  -2  17   99.99   26.20
   5  -2 -17   74.89   34.70
  -5  -2  17   97.89   16.70
   5  -2 -17   73.49   12.50
  -5   2  17  101.39   22.90
   5   2 -17   90.49   27.90
   5   2 -17   77.69   16.00
  -5   2  17   63.99   17.30
  -5   2  17   88.59   16.50
  -4  -2  17   45.40   10.70
   4  -2 -17   62.99   34.50
  -4  -2  17   41.00   20.10
   4  -2 -17   43.60    9.10
   4   2 -17   44.80   11.60
  -4   2  17   43.90   11.00
  -4   2  17   33.50   13.20
   4   2 -17   42.40   25.50
  -4   2  17   65.49   19.50
   3  -2 -17   25.90    7.30
   3  -2 -17   26.60   29.00
  -3  -2  17   44.80   20.90
  -3  -2  17   19.90    9.00
  -3   2  17   -4.70    7.20
  -3   2  17    6.50    7.30
   3   2 -17   15.20   20.50
  -3   2  17   13.80   15.00
  -2  -2  17   -3.40    6.20
   2  -2 -17   18.90   23.20
   2  -2 -17    3.20    4.80
   2   2 -17    8.70    6.00
  -2   2  17    0.70    7.70
   2   2 -17    7.90    7.50
  -2   2  17    0.30    6.70
   2   2 -17   -5.50   15.50
  -1  -2  17  148.39   18.60
   1  -2 -17  118.39   38.60
   1  -2 -17  178.48   20.80
  -1   2  17  123.49   18.40
   1   2 -17  116.29   32.00
  -1   2  17  168.78   21.90
   1   2 -17  132.19   16.10
   0  -2  17  105.39   16.40
   0  -2 -17   79.09   11.90
   0  -2 -17   65.49   31.80
   0   2 -17   94.89   30.00
   0   2  17  110.89   17.30
   0   2 -17  135.19   16.20
   0   2  17  103.59   15.50
  -1  -2 -17   -7.30   21.20
   1  -2  17    3.20    7.20
  -1  -2 -17    7.70    5.20
   1   2  17   -6.40    6.60
  -1   2 -17   18.70   21.30
  -1   2 -17    1.40    4.40
   1   2  17    1.80    6.90
   2  -2  17  503.35   33.80
  -2  -2 -17  458.45   78.79
  -2  -2 -17  473.65   29.60
   2   2  17  454.15   31.40
  -2   2 -17  487.95   37.30
   2   2  17  432.16   32.00
  -2   2 -17  365.96   53.29
  -3  -2 -17   62.69   34.70
  -3  -2 -17   48.70    9.90
  -3   2 -17  107.69   32.80
   3   2  17   82.19   14.30
   3   2  17   91.39   15.60
  -3   2 -17   84.79   12.50
  -4  -2 -17  235.18   50.89
  -4  -2 -17  196.08   19.20
  -4   2 -17  167.28   40.10
  -4   2 -17  176.98   16.70
  -5  -2 -17  252.87   23.20
  -5  -2 -17  323.47   60.79
  -5   2 -17  159.88   41.20
  -8  -3  17  107.89   18.40
  -8  -3  17  141.29   36.30
   8  -3 -17   81.29   47.20
   8   3 -17   91.99   26.40
  -8   3  17  130.09   18.90
  -8   3  17  117.09   30.80
  -8   3  17   58.89   20.30
  -7  -3  17  149.49   20.30
   7  -3 -17  130.69   47.70
  -7  -3  17  206.78   36.40
  -7   3  17  137.59   19.70
  -7   3  17  220.08   32.60
   7   3 -17  220.48   37.20
   7   3 -17  168.18   24.20
  -7   3  17  161.98   29.50
  -6  -3  17   54.29   24.90
   6  -3 -17   32.10   36.70
  -6  -3  17   22.20    8.60
   6   3 -17    5.20   20.50
  -6   3  17   30.00   19.60
  -6   3  17   30.40   15.30
  -6   3  17   24.30   10.80
   6   3 -17   35.30   11.70
   5  -3 -17  874.61   83.69
  -5  -3  17  736.13   46.80
   5  -3 -17  721.33   43.70
  -5  -3  17  758.52   75.39
  -5   3  17  902.11   56.09
   5   3 -17  911.91   66.79
   5   3 -17  738.53   48.10
  -5   3  17  789.32   48.10
  -4  -3  17  118.79   15.40
   4  -3 -17   96.09   37.90
   4  -3 -17   82.19   12.40
  -4  -3  17  108.99   25.80
   4   3 -17   89.39   15.90
  -4   3  17  115.29   23.40
  -4   3  17   97.19   16.80
   4   3 -17  109.49   30.00
  -4   3  17   99.39   19.60
  -3  -3  17  627.24   56.69
  -3  -3  17  794.72   47.40
   3  -3 -17  718.43   43.40
   3  -3 -17  772.22   77.99
  -3   3  17  814.82   49.70
   3   3 -17  858.31   47.90
  -3   3  17  833.02   53.89
   3   3 -17  815.62   64.89
  -3   3  17  846.62   48.20
   2  -3 -17  858.41   78.89
   2  -3 -17  927.91   49.80
  -2   3  17  745.73   46.50
   2   3 -17  695.63   46.40
   2   3 -17  725.23   63.09
  -2   3  17  804.72   48.40
  -1  -3  17  231.28   24.40
   1  -3 -17  149.88   41.90
   1  -3 -17  146.59   14.20
   1   3 -17  146.99   17.90
   1   3 -17  168.88   33.80
  -1   3  17  155.48   20.60
  -1   3  17  142.59   17.90
   0  -3  17 1121.29   60.49
   0  -3 -17 1068.09   91.59
   0   3 -17 1051.49   57.69
   0   3  17 1051.49   59.49
   0   3 -17 1030.60   79.29
   0   3  17 1064.39   59.99
  -1  -3 -17   10.40   48.40
   1  -3  17   17.00    8.90
  -1  -3 -17   12.80    6.00
  -1   3 -17   45.90   25.10
   1   3  17    1.60    8.60
   1   3  17   14.00    7.90
  -1   3 -17   29.30    7.60
  -2  -3 -17  313.47   22.60
  -2  -3 -17  330.57   62.49
   2   3  17  260.67   23.90
  -2   3 -17  306.67   21.40
  -2   3 -17  367.66   52.79
   2   3  17  295.47   25.90
  -3  -3 -17  248.58   52.29
  -3  -3 -17  284.17   21.80
   3   3  17  207.28   23.30
  -3   3 -17  253.47   19.50
   3   3  17  237.08   24.30
  -3   3 -17  292.07   47.70
  -4  -3 -17  -12.20   29.10
  -4  -3 -17   13.80    8.20
  -4   3 -17   16.30   25.90
  -4   3 -17   13.00    6.50
   4   3  17   12.00   11.30
  -5  -3 -17   53.89   39.40
  -5  -3 -17   69.59   15.50
   5   3  17   61.59   16.30
  -5   3 -17  116.69   38.20
  -5   3 -17   77.29   13.00
   8  -4 -17   64.49   46.60
  -8  -4  17   34.90   12.00
  -8  -4  17   24.00   26.70
  -8   4  17   33.00   11.70
   8   4 -17   42.50   22.80
  -8   4  17   47.40   25.80
  -8   4  17   45.50   21.40
  -7  -4  17  137.19   19.30
  -7  -4  17  126.99   31.80
   7  -4 -17  210.28   56.29
   7   4 -17  101.09   22.80
  -7   4  17  184.58   31.00
  -7   4  17   99.99   23.10
   7   4 -17  142.59   30.30
  -7   4  17  148.19   21.20
  -6  -4  17    4.30   20.10
   6  -4 -17   -4.70   33.40
  -6  -4  17   -4.90    6.40
  -6   4  17    1.20    8.60
  -6   4  17   -7.60   11.30
  -6   4  17   -6.80   16.80
   6   4 -17   -0.80   17.90
   6   4 -17    2.20   10.00
  -5  -4  17   41.60   11.90
  -5  -4  17  102.59   28.50
   5  -4 -17   26.70   37.40
  -5   4  17   80.49   16.20
  -5   4  17   53.69   19.50
  -5   4  17   54.89   16.70
   5   4 -17   60.19   13.10
   5   4 -17   64.39   25.80
  -4  -4  17   32.60   20.10
  -4  -4  17   29.00    9.90
   4  -4 -17   60.49   40.00
  -4   4  17   35.20   11.00
  -4   4  17   52.29   19.40
  -4   4  17   17.60   12.90
   4   4 -17   10.10   19.40
   3  -4 -17    4.30   26.40
   3  -4 -17   28.10    7.70
  -3  -4  17   21.20    9.10
   3   4 -17   33.40   20.30
  -3   4  17   13.70   10.60
  -3   4  17   17.10   14.70
   3   4 -17   23.30    9.70
  -3   4  17   22.90    9.50
   3   4 -17   22.00   11.60
  -2  -4  17   -4.20   23.20
   2  -4 -17   16.30   27.60
  -2  -4  17    0.60    7.10
   2  -4 -17    2.30    5.20
  -2   4  17   16.90   10.60
   2   4 -17    2.60    6.20
   2   4 -17   14.30   17.80
  -2   4  17   -1.90    5.70
  -1  -4  17  104.19   15.50
   1  -4 -17  127.29   15.10
   1   4 -17  113.49   15.40
  -1   4  17  129.59   19.00
   1   4 -17   72.39   29.80
  -1   4  17   87.79   14.30
   0  -4  17  168.38   25.30
   0  -4 -17  176.28   16.20
   0  -4 -17  260.47   53.19
   0   4  17  192.98   21.00
   0   4 -17  276.67   46.90
   0   4  17  206.08   21.50
   0   4 -17  174.28   17.50
  -1  -4 -17   22.00   30.30
  -1  -4 -17   13.70    6.50
  -1   4 -17   26.60   19.60
  -1   4 -17   32.60    9.10
   1   4  17   20.90    8.70
   1   4  17   25.70   10.90
  -2  -4 -17  561.54   34.80
  -2  -4 -17  638.04   86.79
  -2   4 -17  581.14   56.79
   2   4  17  512.35   35.30
  -2   4 -17  564.74   33.20
   2   4  17  519.95   37.80
  -3  -4 -17   55.59   11.50
  -3  -4 -17   48.50   37.20
  -3   4 -17   75.89   11.30
  -3   4 -17   68.39   28.00
   3   4  17   61.49   15.30
   3   4  17   71.99   14.60
  -4  -4 -17  174.18   49.99
  -4  -4 -17  109.69   17.70
   4   4  17  168.68   22.60
  -4   4 -17  107.89   32.10
   7  -5 -17   93.59   49.90
  -7  -5  17  152.38   35.10
  -7  -5  17   93.89   15.90
  -7   5  17  104.99   24.90
  -7   5  17  128.49   18.70
   7   5 -17   95.99   25.00
  -6  -5  17   17.30    9.50
   6  -5 -17   17.80   36.80
  -6  -5  17    6.60   22.50
   6   5 -17    4.50   18.20
  -6   5  17   36.10   13.40
  -6   5  17   36.60   16.40
   6   5 -17   27.30   11.10
   5  -5 -17  444.16   72.99
  -5  -5  17  511.55   35.50
  -5  -5  17  593.54   54.49
   5   5 -17  525.65   50.09
  -5   5  17  562.94   37.50
   5   5 -17  450.15   36.20
  -5   5  17  528.85   41.60
  -4  -5  17  109.59   29.80
  -4  -5  17   93.99   15.90
   4  -5 -17   75.79   38.50
   4  -5 -17   63.89   11.50
  -4   5  17   54.19   15.80
   4   5 -17   69.49   16.00
  -4   5  17  105.09   19.80
   4   5 -17   76.09   23.60
  -4   5  17   75.29   33.40
   3  -5 -17  464.05   29.80
  -3  -5  17  390.36   49.20
   3  -5 -17  557.44   78.49
  -3  -5  17  443.26   32.50
   3   5 -17  490.55   57.59
   3   5 -17  499.45   34.50
  -3   5  17  502.65   33.80
  -3   5  17  459.75   60.09
  -3   5  17  560.14   38.60
   2  -5 -17  436.26   28.80
   2  -5 -17  489.45   70.59
  -2  -5  17  342.67   46.70
  -2  -5  17  496.75   32.40
   2   5 -17  599.04   75.89
  -2   5  17  485.35   32.30
   2   5 -17  467.05   32.90
  -2   5  17  422.36   57.09
  -2   5  17  467.05   35.40
   1  -5 -17  100.49   13.40
   1  -5 -17  114.69   40.30
  -1  -5  17  111.39   15.80
  -1   5  17  131.99   18.30
  -1   5  17  102.19   18.90
   1   5 -17   88.69   26.60
   1   5 -17  138.19   20.10
   0  -5 -17  538.65   33.60
   0  -5 -17  626.04   84.39
   0  -5  17  566.04   36.40
   0   5  17  508.15   34.70
   0   5 -17  550.14   35.10
   0   5  17  557.74   38.90
   0   5 -17  523.45   52.69
  -1  -5 -17   17.30   30.30
   1   5  17   15.00   12.60
  -1   5 -17   19.80   20.60
  -1   5 -17   21.60    8.80
   1   5  17   13.70    7.80
  -2  -5 -17  212.58   56.99
  -2  -5 -17  197.28   18.90
   2   5  17  154.28   23.50
  -2   5 -17  193.88   16.80
   2   5  17  167.38   19.30
  -2   5 -17  251.07   44.20
  -3  -5 -17  137.79   51.59
  -3  -5 -17  119.69   18.10
  -3   5 -17  120.39   34.40
  -3   5 -17  120.89   14.70
   3   5  17  139.89   25.20
  -4  -5 -17   -3.40   32.00
  -4  -5 -17    0.50    8.40
  -4   5 -17   12.50   22.10
  -4   5 -17    5.70    6.20
   4   5  17   -5.80   11.20
   7  -6 -17    5.30   42.70
  -7  -6  17   88.19   32.20
  -7   6  17   69.99   16.40
   7   6 -17   66.69   24.90
  -7   6  17   61.09   21.70
   6  -6 -17    6.90   40.30
  -6  -6  17    7.50   22.80
  -6  -6  17    1.80    8.40
  -6   6  17   -4.00   13.40
   6   6 -17    6.70   19.20
  -6   6  17   -8.90   10.30
  -5  -6  17   51.39   13.00
   5  -6 -17   40.50   41.80
  -5  -6  17   74.39   26.90
  -5   6  17   32.30   15.90
   5   6 -17   44.70   34.60
  -5   6  17   46.10   13.70
   4  -6 -17   16.80   33.20
  -4  -6  17    6.60   19.50
  -4  -6  17   29.70   10.80
   4   6 -17   43.10   23.00
  -4   6  17   28.90   12.60
  -4   6  17   23.00   14.70
   4   6 -17   38.40   14.20
   3  -6 -17   10.80    6.80
   3  -6 -17   18.20   30.90
  -3  -6  17    7.70   18.70
  -3  -6  17   10.30    7.90
   3   6 -17    4.70    7.10
   3   6 -17   -5.30   16.60
  -3   6  17    0.10    6.80
  -3   6  17    6.40   11.80
   2  -6 -17   15.20   31.30
  -2  -6  17   -1.90    7.90
   2  -6 -17   -4.10    5.50
  -2  -6  17    8.50   18.10
  -2   6  17    0.60   21.80
  -2   6  17    5.90    7.00
   2   6 -17  -11.50   15.00
  -2   6  17   -6.80    8.90
   2   6 -17    7.40    7.30
  -1  -6  17   39.10   10.40
   1  -6 -17   23.90   31.20
   1  -6 -17   47.80    9.80
  -1   6  17   58.09   11.30
   1   6 -17   88.79   26.50
   1   6 -17   90.29   16.30
  -1   6  17   62.99   16.70
   0  -6 -17   64.89   11.90
   0  -6 -17   62.59   38.30
   0   6 -17   99.49   14.70
   0   6 -17   84.59   28.00
   0   6  17  102.49   19.60
  -1  -6 -17   24.90   32.10
  -1  -6 -17    0.50    5.80
  -1   6 -17    7.60    7.20
  -1   6 -17   -7.00   14.70
   1   6  17    0.80    6.50
   1   6  17    0.40   10.60
  -2  -6 -17  304.87   24.40
  -2  -6 -17  154.18   51.49
   2   6  17  264.07   30.70
  -2   6 -17  290.37   45.60
   2   6  17  244.38   22.40
  -2   6 -17  278.57   21.30
  -3  -6 -17   80.59   46.60
  -3  -6 -17   51.99   12.90
  -3   6 -17   75.89   12.00
   3   6  17   54.89   17.00
  -3   6 -17   30.50   23.00
  -6  -7  17    6.20   25.20
   6  -7 -17   35.30   45.40
   6   7 -17   38.80   23.80
  -6   7  17   34.30   19.00
  -5  -7  17  365.86   54.79
   5  -7 -17  343.47   69.59
  -5   7  17  437.56   32.80
   5   7 -17  329.77   31.10
   5   7 -17  293.17   41.90
  -5   7  17  384.66   37.60
  -4  -7  17   99.59   32.30
  -4  -7  17   62.39   14.50
   4  -7 -17   49.50   43.40
  -4   7  17   66.19   19.00
  -4   7  17   86.89   18.40
   4   7 -17   65.79   15.90
   4   7 -17   73.49   25.10
   3  -7 -17  314.87   66.69
  -3  -7  17  278.17   44.20
  -3  -7  17  375.16   29.40
   3   7 -17  334.67   29.20
   3   7 -17  367.56   47.20
  -3   7  17  377.16   34.60
  -3   7  17  369.46   28.60
  -2  -7  17  411.46   50.39
  -2  -7  17  381.36   50.69
   2  -7 -17  405.66   73.29
  -2   7  17  412.86   30.10
   2   7 -17  373.56   48.10
  -2   7  17  463.35   36.60
   2   7 -17  381.36   30.70
  -1  -7  17   40.90   24.50
   1  -7 -17   43.00   10.20
   1  -7 -17   73.89   43.00
   1   7 -17   43.30   22.20
  -1   7  17   53.39   16.80
   1   7 -17   45.00   12.00
  -1   7  17   60.89   12.90
  -1   7  17   23.90   20.70
   0  -7 -17  520.35   81.69
   0  -7 -17  531.75   34.00
   0   7 -17  519.85   51.29
   0   7  17  482.15   39.40
   0   7 -17  495.55   34.30
   0   7  17  469.95   33.10
  -1  -7 -17   35.50   12.20
  -1  -7 -17   52.99   40.10
  -1   7 -17   46.70   23.90
   1   7  17   45.20   16.80
   1   7  17   29.10    8.50
  -1   7 -17   57.49   12.90
  -2  -7 -17  269.97   63.19
   2   7  17  223.68   30.40
  -2   7 -17  196.78   38.90
  -2   7 -17  243.88   20.50
   5  -8 -17   43.00   43.50
  -5  -8  17   47.10   28.20
   5   8 -17   71.39   26.30
  -5   8  17   37.00   19.10
  -5   8  17   41.00   14.40
   4  -8 -17   28.10   42.70
  -4  -8  17   17.90   27.10
  -4   8  17   30.30   16.60
  -4   8  17   21.60   11.50
   4   8 -17   43.70   24.60
   4   8 -17   27.20   12.10
   3  -8 -17  -17.90   31.50
  -3  -8  17   -3.70   22.20
  -3   8  17    3.90    7.50
  -3   8  17   16.30   13.60
   3   8 -17   -4.60   18.10
   3   8 -17    3.70    9.20
  -2  -8  17   -6.10   19.20
   2  -8 -17   19.30   37.30
  -2   8  17   -3.20   16.50
  -2   8  17   -0.40   11.10
   2   8 -17   -6.60   16.00
   2   8 -17   -1.30    7.90
   1  -8 -17   33.70   36.90
  -1  -8  17   17.60   23.70
   1   8 -17   63.99   26.70
   1   8 -17   62.09   13.30
  -1   8  17   43.80   11.30
  -1   8  17   42.30   15.50
   0  -8 -17   62.39   42.00
   0   8 -17   58.79   14.40
   0   8 -17   74.19   26.20
   0   8  17   37.80   15.10
   0   8  17   32.70   11.00
  -1  -8 -17  -28.50   32.40
   1   8  17    2.40   13.20
  -1   8 -17    3.30    6.90
  -1   8 -17   -6.50   15.80
   8   0 -18  -17.50   31.70
  -8   0  18   -2.70    8.40
  -8   0  18    2.00   22.90
   7   0 -18   41.30   34.60
  -7   0  18   25.30   11.20
  -6   0  18   17.80   16.00
  -6   0  18   35.50   11.10
  -6   0  18   32.90   22.30
   6   0 -18   11.50    8.70
   6   0 -18   55.79   33.60
   5   0 -18    5.50   25.40
   5   0 -18   -2.50    6.50
  -5   0  18   -1.60    6.50
  -5   0  18   -4.90   10.10
  -5   0  18  -15.90   15.40
   4   0 -18    8.30   25.30
  -4   0  18    5.30    9.40
  -4   0  18    8.20    7.70
  -4   0  18   26.50   17.50
   4   0 -18    7.20    6.00
  -3   0  18   74.89   15.30
   3   0 -18  102.89   34.20
   3   0 -18   72.39   12.90
  -3   0  18   53.29   13.20
  -3   0  18   43.70   20.50
  -2   0  18  245.28   22.40
   2   0 -18  236.48   45.30
  -2   0  18  238.28   22.60
   1   0 -18   -2.00   19.90
   1   0 -18    0.70    4.40
  -1   0  18    2.30    7.30
   1   0 -18    2.80    9.60
  -1   0  18    2.90    7.70
   0   0  18  476.55   33.10
   0   0 -18  433.06   28.30
  -1   0 -18  243.08   48.70
   1   0  18  237.68   26.80
  -1   0 -18  231.68   18.50
   2   0  18  371.96   51.39
  -2   0 -18  427.86   62.39
  -2   0 -18  386.06   26.00
  -3   0 -18  495.85   31.70
  -3   0 -18  540.05   71.39
  -4   0 -18  -12.70   25.80
  -4   0 -18   -2.20    5.90
  -8  -1  18   11.10   26.70
   8  -1 -18    5.70   35.50
  -8  -1  18    2.60    9.00
  -8   1  18   16.80   10.20
   8   1 -18   -9.10   25.80
  -8   1  18   35.20   27.80
  -7  -1  18  384.26   49.10
  -7  -1  18  362.76   28.50
   7  -1 -18  384.56   62.89
   7   1 -18  314.77   29.90
  -7   1  18  257.47   35.50
  -7   1  18  396.56   29.70
  -7   1  18  319.07   42.60
   7   1 -18  401.96   55.39
   6  -1 -18   24.60   30.90
  -6  -1  18    5.70    8.40
   6  -1 -18    6.20    7.60
  -6  -1  18    3.10   33.30
  -6   1  18   -1.10    7.60
   6   1 -18   10.80    9.00
  -6   1  18   -9.90   17.40
   6   1 -18   14.10   25.40
  -6   1  18   -4.30   10.90
  -5  -1  18  382.66   45.90
  -5  -1  18  403.66   30.00
   5  -1 -18  448.36   65.49
   5  -1 -18  363.76   27.30
   5   1 -18  508.55   64.09
  -5   1  18  425.26   41.90
  -5   1  18  381.96   30.20
   5   1 -18  351.26   28.70
  -5   1  18  345.67   32.80
   4  -1 -18  609.34   36.00
   4  -1 -18  465.95   69.39
  -4  -1  18  624.94   50.59
  -4  -1  18  525.95   39.30
   4   1 -18  550.94   36.80
  -4   1  18  576.14   40.50
  -4   1  18  525.55   46.70
   4   1 -18  644.24   63.29
  -4   1  18  610.44   38.90
  -3  -1  18   70.79   24.70
  -3  -1  18   70.79   15.70
  -3  -1  18   98.99   15.30
   3  -1 -18   61.49   30.20
   3  -1 -18   64.49   11.70
   3   1 -18   54.19   29.30
  -3   1  18   75.89   15.70
  -3   1  18   70.49   22.30
   3   1 -18   83.79   13.80
  -3   1  18  112.89   29.60
   2  -1 -18  744.13   43.00
  -2  -1  18  696.13   44.80
  -2  -1  18  801.72   47.10
   2  -1 -18  818.22   75.09
  -2   1  18  762.92   46.10
   2   1 -18  784.92   68.99
   2   1 -18  767.22   44.20
  -2   1  18  791.92   47.00
   1  -1 -18   37.80   27.10
   1  -1 -18   19.10    6.30
   1   1 -18   27.60    8.30
   1   1 -18   57.09   26.50
  -1   1  18   21.50    8.70
  -1   1  18   26.00   10.40
   0  -1 -18  523.55   42.80
   0  -1  18  577.14   37.80
   0   1 -18  594.44   34.20
   0   1  18  538.65   38.00
   0   1  18  554.14   35.20
  -1  -1 -18  177.28   44.50
   1  -1  18  180.48   21.80
  -1  -1 -18  155.78   15.10
   1   1  18  188.98   18.00
  -1   1 -18  200.58   44.10
   1   1  18  152.18   19.20
  -1   1 -18  154.78   15.00
   2  -1  18   25.00   11.20
  -2  -1 -18    9.40    6.60
  -2  -1 -18    3.80   23.80
  -2   1 -18   18.00    7.60
  -2   1 -18  -13.70   20.60
   2   1  18    8.20    9.10
  -3  -1 -18  134.89   40.60
  -3  -1 -18  131.79   17.00
  -3   1 -18  121.19   14.20
   3   1  18   97.39   17.40
  -3   1 -18   78.59   31.60
  -4  -1 -18   10.60    7.60
  -4  -1 -18   31.50   31.90
  -4   1 -18  -14.80   22.40
  -4   1 -18   12.80    8.00
  -8  -2  18   -0.90    8.40
  -8  -2  18  -11.20   23.00
   8  -2 -18  -11.00   37.00
   8   2 -18   -8.80   25.40
  -8   2  18   -6.00    8.80
  -8   2  18   -3.70   23.00
  -8   2  18   -2.50   15.30
  -7  -2  18   80.39   29.80
  -7  -2  18   65.59   13.60
   7  -2 -18    8.10   34.70
   7   2 -18   52.79   30.00
  -7   2  18   85.19   16.80
  -7   2  18   49.40   20.00
   7   2 -18   38.80   16.10
  -7   2  18   54.89   25.00
   6  -2 -18   18.20   14.40
   6  -2 -18  -23.30   27.40
  -6  -2  18    9.80    6.90
  -6  -2  18   21.20   21.40
   6   2 -18    4.10   10.10
   6   2 -18   -0.50   20.60
  -6   2  18   14.70   10.30
  -6   2  18    9.90   14.00
  -6   2  18   30.90   22.10
  -5  -2  18    0.70    8.20
   5  -2 -18   16.80   30.10
   5  -2 -18    0.80    5.70
   5   2 -18   -7.40    6.40
  -5   2  18  -12.30   10.10
  -5   2  18   -4.00    7.50
   5   2 -18   11.30   21.20
  -5   2  18   -5.00   16.10
   4  -2 -18  -10.80   23.90
  -4  -2  18    1.20    7.40
   4  -2 -18    4.90    5.70
  -4  -2  18   -8.20   16.10
  -4   2  18   -0.20    6.90
  -4   2  18   -1.40    8.60
   4   2 -18  -16.90   21.10
  -4   2  18   -3.80   15.30
   4   2 -18   10.30    8.50
   3  -2 -18   50.09    9.40
  -3  -2  18   32.60   20.00
  -3  -2  18   44.60   10.50
   3  -2 -18   49.50   29.00
  -3   2  18   69.99   13.80
  -3   2  18   30.70   19.70
   3   2 -18   46.10   25.60
  -3   2  18   58.09   14.70
   2  -2 -18  200.98   16.90
   2  -2 -18  218.68   47.70
  -2  -2  18  238.08   21.80
   2   2 -18  178.38   40.20
  -2   2  18  165.48   20.00
  -2   2  18  187.48   22.70
   2   2 -18  183.48   18.30
   1  -2 -18  -16.30   37.50
  -1  -2  18    9.60    8.80
   1   2 -18    1.90    5.60
   1   2 -18    4.00   20.30
  -1   2  18   16.10   10.10
  -1   2  18    2.20    6.30
   0  -2 -18  461.25   29.40
   0  -2  18  448.26   33.10
   0  -2 -18  490.85   71.59
   0   2 -18  453.65   29.80
   0   2  18  482.25   32.30
   0   2 -18  502.55   66.39
   0   2  18  503.95   33.50
  -1  -2 -18  128.49   40.60
  -1  -2 -18  121.39   15.50
   1  -2  18  108.59   30.70
   1   2  18   88.59   15.50
   1   2  18  160.78   21.20
  -1   2 -18  149.79   38.10
  -1   2 -18  117.69   13.90
  -2  -2 -18  299.87   22.50
  -2  -2 -18  342.47   59.99
   2   2  18  286.27   26.00
  -2   2 -18  323.37   22.30
   2   2  18  290.67   24.90
  -2   2 -18  322.57   53.99
  -3  -2 -18  405.16   69.19
  -3  -2 -18  379.06   27.20
   3   2  18  371.56   35.40
   3   2  18  349.57   28.90
  -3   2 -18  431.46   26.60
  -3   2 -18  325.17   54.29
  -4  -2 -18   17.00    8.80
  -4  -2 -18   12.60   31.60
  -4   2 -18    9.20    7.00
  -4   2 -18   30.10   27.30
  -8  -3  18   11.70   26.60
   8  -3 -18  -14.40   37.80
  -8  -3  18    0.90    9.60
  -8   3  18   17.20   11.30
  -8   3  18    9.80   16.90
   8   3 -18    1.70   21.20
  -8   3  18   16.60   24.70
   7  -3 -18  347.57   66.89
  -7  -3  18  436.36   32.40
  -7  -3  18  419.66   55.79
  -7   3  18  375.86   39.80
  -7   3  18  476.95   46.20
   7   3 -18  387.46   51.79
  -7   3  18  423.66   33.00
  -6  -3  18   44.50   25.00
  -6  -3  18   24.00    9.10
   6  -3 -18   96.59   42.80
   6   3 -18   26.60   11.70
   6   3 -18   67.79   27.70
  -6   3  18   31.10   13.30
  -6   3  18   40.00   21.70
  -6   3  18   20.70   14.90
   5  -3 -18  474.15   72.29
   5  -3 -18  464.25   30.40
  -5  -3  18  434.36   51.79
  -5   3  18  495.55   34.90
  -5   3  18  461.65   37.90
   5   3 -18  454.45   34.90
   5   3 -18  362.56   52.19
  -5   3  18  551.54   44.40
  -4  -3  18  673.53   56.79
   4  -3 -18  668.03   39.70
  -4  -3  18  713.83   43.60
   4  -3 -18  798.12   97.19
   4   3 -18  595.34   59.99
  -4   3  18  686.93   44.00
  -4   3  18  682.43   46.30
   4   3 -18  641.24   43.00
  -4   3  18  734.73   51.19
   3  -3 -18   68.69   41.80
   3  -3 -18   86.99   11.90
  -3  -3  18   76.29   13.50
  -3   3  18  111.89   16.20
   3   3 -18  105.39   16.00
   3   3 -18  110.09   29.80
  -3   3  18   82.69   17.10
  -3   3  18   93.89   23.20
   2  -3 -18 1218.88  169.78
  -2  -3  18  917.71   52.29
  -2   3  18  900.01   52.69
   2   3 -18  779.62   72.99
  -2   3  18  826.32   51.99
   2   3 -18  817.92   49.90
   1  -3 -18   37.10   30.50
  -1  -3  18   12.50   10.00
   1  -3 -18   25.30    7.40
  -1   3  18   21.60   10.40
  -1   3  18   15.80    8.20
   1   3 -18   16.20   20.60
   1   3 -18   12.40    7.70
   0  -3 -18  325.57   58.39
   0  -3  18  340.97   26.10
   0  -3 -18  273.27   20.60
   0   3  18  272.97   24.30
   0   3 -18  234.78   43.70
   0   3  18  259.67   23.40
   0   3 -18  292.07   22.10
  -1  -3 -18  336.07   63.99
  -1  -3 -18  269.27   37.30
   1  -3  18  214.08   24.40
   1   3  18  231.58   22.90
  -1   3 -18  319.67   51.29
   1   3  18  261.27   23.20
  -1   3 -18  231.68   19.10
  -2  -3 -18    7.50    6.60
  -2  -3 -18    9.60   28.00
   2   3  18    2.10    8.00
   2   3  18  -12.40    8.00
  -2   3 -18  -18.40   17.30
  -2   3 -18    2.50    4.70
  -3  -3 -18  160.28   48.30
  -3  -3 -18  128.99   17.50
   3   3  18   85.09   21.10
   3   3  18  108.89   18.20
  -3   3 -18  127.49   15.00
  -3   3 -18  137.39   37.00
  -4  -3 -18   29.90   15.20
  -4  -3 -18   -8.50   31.70
  -4   3 -18   20.00    8.20
  -4   3 -18   44.40   30.00
   4   3  18   22.60   13.30
  -7  -4  18   45.70   28.50
   7  -4 -18   68.49   46.40
  -7  -4  18   61.09   16.90
  -7   4  18   31.70   17.20
   7   4 -18   30.00   24.30
  -7   4  18   27.90   12.80
  -7   4  18   85.89   26.10
  -6  -4  18    2.60    7.40
  -6  -4  18   29.50   24.60
   6  -4 -18  -14.50   34.80
  -6   4  18   -0.40   17.30
  -6   4  18    8.50   13.70
  -6   4  18    3.50    9.50
   6   4 -18    0.60   21.10
   6   4 -18   13.50   11.20
  -5  -4  18   31.40   23.50
  -5  -4  18   13.30    7.70
   5  -4 -18   -6.50   34.30
  -5   4  18   10.00   11.80
   5   4 -18   14.00    9.90
  -5   4  18    4.90   10.40
  -5   4  18   20.40   17.20
   5   4 -18    6.10   21.50
   4  -4 -18   25.50   32.70
  -4  -4  18   -1.70    6.10
  -4  -4  18   12.50   19.60
   4   4 -18    7.60   21.60
  -4   4  18    5.00   11.10
  -4   4  18   10.70    9.60
  -4   4  18   17.40   16.10
   4   4 -18   -2.10    6.20
  -3  -4  18   58.89   25.00
  -3  -4  18   73.49   13.20
   3  -4 -18   77.19   39.20
   3  -4 -18   71.59   11.80
  -3   4  18   63.19   16.60
  -3   4  18   74.29   20.70
   3   4 -18   74.19   14.40
  -3   4  18   52.39   12.30
   2  -4 -18  203.58   17.60
   2  -4 -18  273.77   58.79
  -2  -4  18  239.68   27.00
  -2  -4  18  135.69   31.20
   2   4 -18  203.18   39.60
   2   4 -18  207.48   20.60
  -2   4  18  240.58   24.20
  -2   4  18  188.08   21.10
   1  -4 -18   12.50    6.00
   1  -4 -18   38.00   33.30
  -1  -4  18   20.80    9.80
   1   4 -18  -14.00   15.00
  -1   4  18   14.00   10.30
   1   4 -18    8.60    7.00
  -1   4  18   13.60    8.60
   0  -4 -18  421.16   71.59
   0  -4 -18  450.95   32.60
   0  -4  18  486.75   33.90
   0   4 -18  507.55   31.90
   0   4 -18  375.66   55.29
   0   4  18  474.05   34.40
   0   4  18  479.25   33.10
  -1  -4 -18   94.09   13.80
  -1  -4 -18  107.89   40.70
   1   4  18   88.09   14.50
  -1   4 -18   94.19   13.50
   1   4  18   87.39   16.70
  -1   4 -18  107.69   32.70
  -2  -4 -18  214.08   54.69
  -2  -4 -18  262.57   22.50
  -2   4 -18  310.07   21.60
  -2   4 -18  250.97   45.20
   2   4  18  266.07   26.70
  -3  -4 -18  262.37   23.20
  -3  -4 -18  252.37   60.59
  -3   4 -18  229.58   45.30
  -3   4 -18  262.07   20.10
   3   4  18  247.38   26.60
  -4  -4 -18   28.40   38.80
  -4  -4 -18    5.10    8.10
  -4   4 -18    8.30   23.60
  -4   4 -18    5.50    6.50
  -7  -5  18  286.07   27.00
   7  -5 -18  254.77   64.19
  -7  -5  18  299.57   50.49
  -7   5  18  207.28   26.10
   7   5 -18  258.07   40.00
  -7   5  18  193.58   33.60
  -6  -5  18    9.60    8.60
   6  -5 -18   40.00   43.40
  -6  -5  18    8.50   25.80
  -6   5  18   15.20   15.20
  -6   5  18   17.10   11.40
   6   5 -18   14.30   21.70
  -5  -5  18  385.26   29.70
  -5  -5  18  334.27   47.60
   5  -5 -18  340.47   68.79
  -5   5  18  375.56   41.90
   5   5 -18  336.17   31.60
  -5   5  18  353.36   34.50
  -5   5  18  405.66   31.60
  -4  -5  18  390.96   29.30
   4  -5 -18  339.67   67.19
   4  -5 -18  324.97   24.50
  -4  -5  18  284.27   43.40
   4   5 -18  459.55   55.19
  -4   5  18  411.06   34.20
   4   5 -18  311.67   28.70
  -4   5  18  384.46   36.10
  -4   5  18  303.57   53.79
  -4   5  18  477.75   56.99
  -3  -5  18   33.00   10.40
   3  -5 -18   60.59   11.00
  -3  -5  18   26.50   21.50
   3  -5 -18   26.40   32.20
  -3   5  18   52.79   19.00
  -3   5  18   66.39   15.40
  -3   5  18   81.79   19.10
   3   5 -18   71.49   26.40
  -3   5  18   87.29   47.10
   3   5 -18   43.40   12.50
   2  -5 -18  509.25   33.80
  -2  -5  18  415.56   54.19
  -2  -5  18  565.44   37.50
   2  -5 -18  744.13   93.19
  -2   5  18  591.84   41.80
  -2   5  18  576.74   37.50
   2   5 -18  601.84   38.70
   2   5 -18  644.54   56.99
   1  -5 -18    8.60   30.30
  -1  -5  18   11.30    8.70
   1  -5 -18    7.20    5.90
   1   5 -18   27.00   20.00
   1   5 -18   45.00   12.40
  -1   5  18    7.50    7.40
   0  -5  18  151.88   21.10
   0  -5 -18  178.38   54.69
   0  -5 -18  170.98   20.50
   0   5 -18  187.98   38.30
   0   5  18  223.18   30.80
   0   5  18  174.18   20.70
   0   5 -18  176.68   33.00
  -1  -5 -18  140.69   47.80
  -1   5 -18  148.79   17.30
  -1   5 -18   98.99   28.90
   1   5  18  110.59   15.90
  -2  -5 -18   11.90   35.80
   2   5  18    1.50    9.80
  -2   5 -18    0.90    5.00
  -2   5 -18    4.70   18.60
   2   5  18   -2.20   11.10
  -3  -5 -18  162.28   51.59
  -3  -5 -18   46.60   11.80
   3   5  18   54.99   16.60
  -3   5 -18   37.80   26.40
  -3   5 -18   63.99   10.90
   6  -6 -18   17.30   44.20
  -6  -6  18   11.40   26.10
   6   6 -18   22.40   21.10
  -6   6  18    8.00   14.90
  -6   6  18    4.50   11.90
   5  -6 -18   22.40   45.30
  -5  -6  18   -5.40    9.20
  -5  -6  18    0.40   23.20
   5   6 -18    5.20    9.90
  -5   6  18    0.60   12.80
   5   6 -18   -5.60   18.00
  -5   6  18   18.40   12.40
   4  -6 -18   -9.60   33.10
  -4  -6  18    3.60   21.10
  -4   6  18  -13.20   10.80
   4   6 -18    2.70   19.40
  -4   6  18   -1.00    8.50
   4   6 -18   26.50   18.70
  -3  -6  18   43.70   24.70
   3  -6 -18   -7.20   31.60
   3  -6 -18   41.80   10.70
  -3  -6  18   33.40   10.70
  -3   6  18   29.10   15.30
   3   6 -18   17.70   19.70
   3   6 -18   29.90   12.30
  -3   6  18   37.80   10.90
   2  -6 -18  129.99   46.30
  -2  -6  18  115.89   31.10
   2  -6 -18  118.39   15.50
  -2  -6  18   79.69   14.00
   2   6 -18   97.09   17.90
   2   6 -18  153.08   33.00
  -2   6  18  157.68   20.30
  -2   6  18  125.89   35.40
  -2   6  18  147.79   23.70
  -1  -6  18    4.60    9.10
   1  -6 -18    5.70    6.90
   1  -6 -18   20.50   32.00
   1   6 -18   -8.50   16.40
  -1   6  18    1.50   10.50
  -1   6  18    2.10    6.80
   1   6 -18    0.00    6.40
   0  -6 -18  247.08   58.09
   0  -6 -18  248.78   21.90
   0   6 -18  230.78   41.40
   0   6  18  283.87   25.90
   0   6 -18  261.57   23.00
   0   6  18  256.57   30.40
  -1  -6 -18   77.99   41.40
  -1  -6 -18  103.79   15.90
  -1   6 -18   98.39   29.90
  -1   6 -18  106.59   15.50
   1   6  18  159.08   24.70
   1   6  18  133.89   18.30
  -2  -6 -18  160.08   51.39
  -2  -6 -18   96.29   19.60
  -2   6 -18  181.18   39.40
   2   6  18  165.88   25.70
  -2   6 -18  168.88   16.20
  -5  -7  18  227.08   46.50
   5  -7 -18  132.89   53.79
  -5   7  18  324.47   29.20
  -5   7  18  289.27   37.20
   5   7 -18  190.48   37.50
  -4  -7  18  337.17   50.89
   4  -7 -18  178.98   57.79
  -4   7  18  339.87   34.80
  -4   7  18  365.96   29.70
   4   7 -18  308.37   29.70
   4   7 -18  395.46   49.80
  -3  -7  18   28.00   24.30
   3  -7 -18   11.10   36.80
  -3   7  18   50.09   17.90
   3   7 -18   60.69   25.00
   3   7 -18   15.50    9.80
  -3   7  18   23.10   10.30
   2  -7 -18  585.64   88.99
  -2  -7  18  417.36   56.99
  -2   7  18  542.05   41.20
   2   7 -18  544.95   62.39
  -2   7  18  500.85   35.50
   2   7 -18  504.85   36.90
   1  -7 -18   69.99   44.00
  -1  -7  18   -7.70   19.00
   1   7 -18   48.20   12.20
   1   7 -18   64.19   25.60
  -1   7  18   42.70   16.50
  -1   7  18   39.00   11.80
   0  -7 -18  156.68   49.90
   0   7  18  229.88   28.60
   0   7  18  148.89   18.80
   0   7 -18  124.39   31.80
   0   7 -18  227.78   21.40
  -1  -7 -18  110.69   50.79
  -1   7 -18  134.19   17.80
   1   7  18  152.88   25.10
  -1   7 -18   91.09   28.90
  -3  -8  18   11.50   24.70
   3  -8 -18   30.90   40.70
   3   8 -18   16.40   20.50
   3   8 -18   25.70   11.70
  -3   8  18   48.30   14.70
  -3   8  18   41.50   17.30
  -2  -8  18   44.20   26.80
   2  -8 -18   18.30   37.40
  -2   8  18   51.29   17.60
   2   8 -18   54.09   24.80
  -2   8  18   68.69   20.30
   2   8 -18   40.30   12.90
   1  -8 -18  -11.40   36.00
  -1  -8  18    4.70   23.50
   1   8 -18    4.20   10.10
   1   8 -18  -12.70   16.80
  -1   8  18   -1.40    7.00
  -1   8  18    0.90   12.90
   0  -8 -18  279.67   67.49
   0   8 -18  139.69   33.50
   0   8 -18  256.47   23.90
   0   8  18  222.78   30.40
  -8   0  19   -1.80    8.80
   8   0 -19  -24.10   30.70
  -8   0  19  -10.80   22.50
  -7   0  19    9.90   10.50
  -7   0  19    2.50   23.20
   7   0 -19   19.40   34.00
  -6   0  19   -2.40   11.60
   6   0 -19   -2.60    8.10
   6   0 -19   -2.10   27.80
  -6   0  19   -0.30    7.70
  -6   0  19  -25.00   20.60
  -5   0  19   43.20   22.70
   5   0 -19   -2.90   26.40
   5   0 -19   40.70   11.40
  -5   0  19   35.10   16.30
  -5   0  19   39.40   12.40
   4   0 -19   68.69   13.20
   4   0 -19   78.89   34.40
  -4   0  19   79.49   17.30
  -4   0  19   60.59   24.00
  -4   0  19   54.59   13.20
   3   0 -19    6.30    6.60
   3   0 -19    2.90   26.10
  -3   0  19   12.50   11.20
  -3   0  19   13.70    9.50
  -3   0  19   18.60   19.20
   2   0 -19  555.84   86.39
  -2   0  19  419.86   31.80
  -2   0  19  421.66   31.30
   1   0 -19  203.38   43.00
   1   0 -19  215.48   18.30
  -1   0  19  237.68   26.10
  -1   0  19  218.88   21.00
   0   0 -19  252.67   19.80
   0   0  19  248.08   24.40
   0   0 -19  253.07   47.50
  -1   0 -19  689.73   81.39
  -1   0 -19  557.44   34.90
   1   0  19  593.24   40.10
  -2   0 -19   21.00   26.60
   2   0  19    9.00   11.70
  -2   0 -19   15.00    6.70
  -3   0 -19  669.63   39.80
  -3   0 -19  617.74   78.39
  -4   0 -19   87.79   37.60
  -4   0 -19   62.29   13.60
  -8  -1  19   10.90   11.10
  -8  -1  19   36.00   27.60
   8  -1 -19   17.40   36.90
  -8   1  19   22.70   11.00
  -8   1  19  -14.80   23.80
   8   1 -19   30.50   31.40
  -7  -1  19  261.37   42.10
   7  -1 -19  262.17   54.89
  -7  -1  19  257.67   24.80
  -7   1  19  240.68   46.10
   7   1 -19  284.17   51.19
  -7   1  19  211.78   32.60
  -7   1  19  273.97   26.30
   6  -1 -19  140.39   19.80
  -6  -1  19  194.88   36.80
   6  -1 -19  169.08   46.40
  -6  -1  19  136.29   20.10
  -6   1  19  186.78   24.50
  -6   1  19  217.28   37.10
   6   1 -19  134.49   19.50
   6   1 -19  190.88   43.40
  -6   1  19  214.68   30.50
   5  -1 -19   34.50   10.60
   5  -1 -19   48.00   31.70
  -5  -1  19   45.80   11.80
   5   1 -19   48.20   31.50
  -5   1  19   29.30   21.30
  -5   1  19   33.50   16.30
   5   1 -19   40.30   11.40
  -5   1  19   51.89   14.00
  -4  -1  19  689.13   45.70
   4  -1 -19  891.91   99.49
   4  -1 -19  683.43   40.70
  -4  -1  19  587.84   54.39
  -4  -1  19  638.44   43.00
   4   1 -19  664.33   42.00
  -4   1  19  707.83   44.20
  -4   1  19  628.64   53.09
  -4   1  19  680.23   45.70
   4   1 -19  750.42   85.19
  -3  -1  19   83.59   17.10
  -3  -1  19   24.70   21.80
  -3  -1  19   89.09   17.10
   3  -1 -19  104.89   14.60
   3   1 -19   71.99   13.20
  -3   1  19   79.69   16.10
   3   1 -19   73.49   33.90
  -3   1  19   67.49   15.90
  -3   1  19   55.19   23.00
  -2  -1  19  370.06   29.30
   2  -1 -19  463.35   67.69
  -2  -1  19  363.36   28.50
   2  -1 -19  350.26   25.10
  -2   1  19  372.46   29.30
  -2   1  19  369.66   28.90
   2   1 -19  361.06   58.99
   2   1 -19  363.36   26.30
   1  -1 -19  271.37   53.79
   1  -1 -19  162.38   15.50
  -1  -1  19  150.38   19.60
   1   1 -19  161.88   16.10
  -1   1  19  193.38   23.10
  -1   1  19  166.08   20.30
   1   1 -19  201.38   42.20
   0  -1 -19   48.70    9.50
   0  -1 -19   19.80   27.90
   0  -1  19   38.40   11.80
   0   1  19   65.29   14.90
   0   1 -19   34.00    8.40
   0   1  19   69.49   13.30
   0   1 -19   14.40   23.40
  -1  -1 -19  102.79   38.00
  -1  -1 -19   84.49   12.60
   1  -1  19  109.09   17.90
   1   1  19   75.69   14.70
  -1   1 -19   54.99   29.20
  -1   1 -19  100.99   13.80
   2  -1  19   35.40   13.30
  -2  -1 -19  108.89   42.20
  -2  -1 -19   50.39   11.20
  -2   1 -19   32.20   28.40
   2   1  19   38.20   13.10
  -3  -1 -19   -1.80    6.60
  -3  -1 -19   10.90   30.50
  -3   1 -19    3.40    6.40
  -3   1 -19   15.20   28.30
  -4  -1 -19  -11.40   29.00
  -4  -1 -19    1.10    8.00
  -4   1 -19   -0.60    6.90
  -4   1 -19  -17.30   24.50
  -8  -2  19    2.30    9.90
   8  -2 -19    5.50   40.00
  -8  -2  19   20.00   27.90
  -8   2  19   16.50   16.90
   8   2 -19  -12.60   27.90
  -8   2  19    9.00   10.80
  -8   2  19    6.50   59.79
  -7  -2  19   22.30   25.40
   7  -2 -19  -22.00   35.30
  -7  -2  19   -0.10    8.40
  -7   2  19   -1.30   14.90
  -7   2  19    6.70   23.20
   7   2 -19  -25.30   26.00
  -7   2  19    4.10   10.00
   6  -2 -19   26.30   46.10
  -6  -2  19    5.70    9.10
  -6  -2  19   -1.70   20.30
  -6   2  19    1.40   12.60
  -6   2  19   22.80   21.60
   6   2 -19   10.60    9.20
   6   2 -19   11.10   26.20
  -6   2  19    4.10    9.80
   5  -2 -19   37.40   10.00
  -5  -2  19   33.80   12.30
  -5  -2  19   63.79   27.60
  -5   2  19   21.80   10.90
  -5   2  19   43.50   23.00
   5   2 -19   30.80   12.10
  -5   2  19   27.30   14.50
   5   2 -19   22.80   26.00
  -4  -2  19   87.89   26.00
   4  -2 -19   88.79   49.99
  -4  -2  19   81.49   14.80
   4  -2 -19   76.19   12.50
   4   2 -19   59.89   13.30
  -4   2  19   60.89   15.90
  -4   2  19  117.49   25.10
   4   2 -19   39.60   27.30
  -4   2  19   55.29   12.50
  -3  -2  19   16.50    8.50
   3  -2 -19   58.99   35.10
  -3  -2  19   11.90   28.20
   3  -2 -19   28.30    8.20
   3   2 -19    2.60    5.10
  -3   2  19   31.60   12.60
  -3   2  19   19.00   11.30
  -3   2  19    5.70   18.70
  -2  -2  19  485.95   34.90
   2  -2 -19  538.35   74.79
   2  -2 -19  465.05   30.20
   2   2 -19  499.25   32.60
  -2   2  19  460.45   34.10
  -2   2  19  458.15   34.10
   2   2 -19  564.44   70.29
  -1  -2  19  109.49   17.60
   1  -2 -19  123.39   39.20
  -1   2  19   74.09   13.90
   1   2 -19  138.79   17.70
   1   2 -19  157.58   39.40
  -1   2  19  137.49   19.50
   0  -2 -19  229.18   50.19
   0  -2  19  183.98   23.20
   0  -2 -19  185.08   16.90
   0   2  19  232.78   21.60
   0   2  19  169.48   21.00
   0   2 -19  190.08   17.30
   0   2 -19  207.38   42.60
  -1  -2 -19  617.14   78.69
  -1  -2 -19  605.04   36.00
   1  -2  19  622.84   40.90
  -1   2 -19  658.13   74.79
  -1   2 -19  580.64   35.40
   1   2  19  566.44   37.60
   1   2  19  548.45   39.30
  -2  -2 -19   -5.00   26.50
  -2  -2 -19    7.60    6.20
  -2   2 -19   12.70    6.90
   2   2  19   -2.30    8.80
   2   2  19    7.30    8.50
  -2   2 -19    6.70   21.40
  -3  -2 -19  504.55   34.30
  -3  -2 -19  636.04   82.89
  -3   2 -19  504.15   69.79
   3   2  19  506.25   35.60
  -3   2 -19  569.54   33.60
  -4  -2 -19   37.20   34.90
  -4  -2 -19   50.79   12.40
  -4   2 -19   41.10   10.40
  -4   2 -19    5.30   28.70
   7  -3 -19  238.98   60.39
  -7  -3  19  284.37   27.00
  -7  -3  19  320.97   52.39
  -7   3  19  276.07   27.20
  -7   3  19  222.88   35.00
   7   3 -19  245.68   44.60
  -7   3  19  212.78   35.90
  -6  -3  19  182.88   40.40
  -6  -3  19  168.48   22.70
   6  -3 -19  191.88   52.49
  -6   3  19  138.39   25.80
  -6   3  19  246.18   35.90
   6   3 -19  172.18   24.20
  -6   3  19  205.58   25.50
   6   3 -19  247.38   45.40
   5  -3 -19   57.09   37.70
   5  -3 -19   52.29   10.50
  -5  -3  19   56.09   28.50
  -5  -3  19   43.70    9.90
  -5   3  19   82.19   15.80
   5   3 -19   75.89   16.60
  -5   3  19   81.09   25.40
  -5   3  19   79.29   20.00
   5   3 -19  112.89   33.90
   4  -3 -19  628.54   38.80
  -4  -3  19  543.45   55.39
  -4  -3  19  698.83   43.70
   4  -3 -19  709.63   91.99
  -4   3  19  656.23   50.89
  -4   3  19  698.83   43.90
   4   3 -19  590.94   42.90
  -4   3  19  722.53   53.09
   3  -3 -19   69.19   37.80
  -3  -3  19   70.09   15.20
   3  -3 -19   72.29   12.00
  -3  -3  19   66.09   25.50
  -3   3  19   39.50   20.60
  -3   3  19   56.29   15.20
  -3   3  19   69.19   14.50
   3   3 -19   59.89   13.20
   3   3 -19   80.19   29.40
  -2  -3  19  219.08   25.80
   2  -3 -19  300.47   23.40
   2  -3 -19  388.46   70.39
  -2   3  19  232.78   33.70
   2   3 -19  254.87   22.80
   2   3 -19  242.98   45.00
  -2   3  19  285.87   25.80
   1  -3 -19  231.28   19.40
  -1  -3  19  237.08   23.50
   1  -3 -19  237.18   52.39
  -1   3  19  283.07   29.90
   1   3 -19  184.08   39.30
  -1   3  19  213.98   25.90
   1   3 -19  272.07   21.90
   0  -3 -19   35.20   29.60
   0  -3  19   24.40   11.60
   0  -3 -19   24.80    7.70
   0   3  19   31.20   11.60
   0   3 -19   30.40   23.30
   0   3  19    8.80    9.80
   0   3 -19   18.10    8.70
  -1  -3 -19  126.49   44.20
  -1  -3 -19   90.59   13.40
   1  -3  19  138.09   21.20
   1   3  19  115.89   25.80
  -1   3 -19  147.29   19.50
  -1   3 -19  158.68   37.60
   1   3  19  136.39   19.30
  -2  -3 -19   41.80   34.50
  -2  -3 -19   42.30    9.80
  -2   3 -19   51.79   27.00
   2   3  19   27.60   12.50
  -2   3 -19   40.00    9.80
   2   3  19   42.80   12.80
  -3  -3 -19    1.00    7.60
  -3  -3 -19  -11.00   30.60
  -3   3 -19   -5.20    5.60
  -3   3 -19  -16.90   21.60
   3   3  19   -8.00    9.90
  -7  -4  19   11.60   11.80
  -7  -4  19   17.70   27.90
   7  -4 -19  -20.70   39.20
  -7   4  19   17.10   16.30
   7   4 -19    5.60   24.80
  -7   4  19   -2.50   10.10
  -7   4  19   25.90   23.90
  -6  -4  19   -0.60    8.60
  -6  -4  19   -1.50   23.90
   6  -4 -19   14.30   37.90
  -6   4  19   -1.90   12.10
  -6   4  19   13.90   10.90
   6   4 -19   14.50   38.70
  -6   4  19    9.50   18.50
  -5  -4  19   63.29   16.30
   5  -4 -19   54.89   40.50
  -5  -4  19   47.50   25.30
   5   4 -19   62.39   29.60
  -5   4  19   70.89   17.60
  -5   4  19   48.80   17.20
  -5   4  19   36.60   20.30
   5   4 -19   57.49   14.40
   4  -4 -19  112.59   45.10
  -4  -4  19  139.19   31.60
  -4  -4  19   52.19   11.40
  -4   4  19  164.98   27.20
   4   4 -19  112.79   31.60
  -4   4  19  109.89   21.00
   4   4 -19   78.59   16.10
  -4   4  19   79.69   16.70
   3  -4 -19   12.20    6.90
   3  -4 -19   -4.90   30.30
  -3  -4  19   14.50   11.40
  -3  -4  19    5.30   20.80
  -3   4  19   18.20   12.30
  -3   4  19   26.80   11.40
   3   4 -19   10.20   21.30
  -3   4  19   -5.30   16.40
   2  -4 -19  461.95   71.99
   2  -4 -19  466.05   31.60
  -2  -4  19  532.95   36.60
  -2  -4  19  395.26   50.89
  -2   4  19  502.65   35.70
   2   4 -19  510.85   35.10
   2   4 -19  590.84   69.29
  -2   4  19  585.54   40.10
   1  -4 -19   77.79   13.00
  -1  -4  19  101.09   18.10
   1  -4 -19   96.79   44.40
   1   4 -19   51.59   26.30
  -1   4  19   72.49   15.10
   1   4 -19   97.99   15.60
  -1   4  19   83.49   16.50
   0  -4  19  206.88   23.60
   0  -4 -19  289.97   62.69
   0   4  19  237.98   23.10
   0   4 -19  207.88   19.90
   0   4 -19  230.98   43.10
   0   4  19  248.48   28.20
  -1  -4 -19  480.95   77.89
  -1  -4 -19  479.75   33.40
  -1   4 -19  547.95   33.50
   1   4  19  518.55   37.70
  -1   4 -19  608.74   72.49
   1   4  19  541.85   37.20
  -2  -4 -19    6.80   34.60
  -2  -4 -19   12.80    8.80
  -2   4 -19    6.60   20.80
  -2   4 -19   10.40    6.40
   2   4  19    7.70   11.40
  -3  -4 -19  351.06   28.50
  -3  -4 -19  425.36   76.39
   3   4  19  278.67   36.50
  -3   4 -19  441.76   26.50
  -3   4 -19  254.67   48.90
  -6  -5  19  115.59   37.00
   6  -5 -19  179.18   58.29
   6   5 -19  106.49   30.30
  -6   5  19  129.79   26.80
  -6   5  19  147.19   28.10
  -6   5  19  122.69   22.40
  -5  -5  19   20.20   24.90
  -5  -5  19   43.00   11.80
   5  -5 -19   63.09   43.90
   5   5 -19   58.59   25.90
  -5   5  19   43.60   21.40
  -5   5  19   61.09   16.40
  -5   5  19   54.49   18.10
  -4  -5  19  538.35   60.99
   4  -5 -19  444.46   30.70
   4  -5 -19  387.96   70.19
  -4  -5  19  488.35   35.40
  -4   5  19  460.35   38.90
  -4   5  19  622.94   51.39
  -4   5  19  502.15   41.30
   4   5 -19  451.05   36.00
   4   5 -19  452.45   57.59
   3  -5 -19  -14.90   28.80
  -3  -5  19   32.30    9.60
  -3  -5  19   44.20   26.00
   3  -5 -19   50.09   10.00
   3   5 -19   47.30   24.00
  -3   5  19   41.10   19.40
  -3   5  19   43.90   12.90
  -3   5  19   36.20   14.70
   3   5 -19   40.30   11.70
  -2  -5  19  278.17   29.80
   2  -5 -19  211.38   59.39
   2  -5 -19  179.58   17.20
  -2  -5  19  112.99   30.80
  -2   5  19  218.08   27.20
   2   5 -19  143.19   19.80
   2   5 -19  214.18   39.80
  -2   5  19  139.29   19.30
   1  -5 -19   97.99   14.60
  -1  -5  19  158.28   24.90
   1  -5 -19  108.59   44.80
   1   5 -19  106.69   16.20
  -1   5  19  146.29   22.40
  -1   5  19  156.38   19.90
   1   5 -19  161.28   36.10
   0  -5 -19    9.20    7.20
   0  -5 -19   -3.50   30.80
   0   5  19    5.70    7.20
   0   5  19    3.10   10.70
   0   5 -19    0.60   18.90
   0   5 -19    2.50    8.00
  -1  -5 -19   68.19   43.40
  -1  -5 -19   39.30   10.40
  -1   5 -19   66.59   29.20
   1   5  19   52.49   14.50
  -1   5 -19   51.99   10.80
   1   5  19   51.99   15.00
  -2  -5 -19   19.90   10.20
  -2  -5 -19    7.00   35.30
   2   5  19   50.09   16.30
  -2   5 -19    7.60   21.20
  -2   5 -19   20.90    8.30
  -5  -6  19   19.70   26.30
   5  -6 -19  -19.60   41.10
  -5   6  19   30.30   17.00
   5   6 -19   15.50   22.30
  -5   6  19   26.30   12.70
   4  -6 -19   18.50   38.70
  -4  -6  19   61.09   29.90
  -4   6  19   67.89   18.00
   4   6 -19   74.79   28.30
  -4   6  19   72.99   16.90
   4   6 -19   43.10   12.60
   3  -6 -19  -24.10   30.60
  -3  -6  19   -5.60   20.00
  -3   6  19    1.80   12.00
   3   6 -19   -7.60    8.20
  -3   6  19    4.00    9.10
   3   6 -19   -7.10   18.40
   2  -6 -19  163.98   27.50
   2  -6 -19  283.37   64.19
  -2  -6  19  172.88   37.10
  -2   6  19  243.18   23.70
   2   6 -19  258.27   24.60
  -2   6  19  284.77   28.80
   2   6 -19  289.27   45.40
   1  -6 -19  135.79   50.09
   1   6 -19  127.79   26.70
  -1   6  19  134.59   18.80
   1   6 -19  123.49   33.20
  -1   6  19  143.49   23.90
   0  -6 -19  148.49   54.39
   0   6  19  114.69   18.10
   0   6 -19   92.29   29.50
   0   6  19  108.79   21.10
   0   6 -19  140.49   19.90
  -1  -6 -19  406.86   76.29
  -1   6 -19  429.46   29.70
  -1   6 -19  379.96   56.49
   1   6  19  419.96   36.40
  -4  -7  19  326.47   51.59
   4  -7 -19  377.66   79.79
   4   7 -19  322.37   32.20
   4   7 -19  366.16   50.19
  -4   7  19  426.56   38.30
  -4   7  19  403.56   32.90
   3  -7 -19   84.99   50.39
  -3  -7  19   25.30   25.90
  -3   7  19   46.80   14.30
   3   7 -19   17.20   21.90
  -3   7  19   11.60   13.70
   3   7 -19   32.00   14.10
   2  -7 -19  253.47   65.39
  -2  -7  19  142.69   35.50
  -2   7  19  213.08   29.80
  -2   7  19  216.28   25.90
   2   7 -19  192.78   24.20
   2   7 -19  232.68   41.80
   1  -7 -19  141.59   50.19
  -1  -7  19   46.40   25.90
   1   7 -19  151.48   21.20
  -1   7  19  108.19   18.10
   1   7 -19  136.09   34.10
  -1   7  19  176.68   27.10
   0  -7 -19   -5.20   33.20
   0   7 -19    0.00    7.20
   0   7 -19  -16.60   16.00
   0   7  19   16.60   14.20
  -7   0  20    9.50   11.00
  -7   0  20   12.10   26.80
   7   0 -20  -36.50   59.29
  -6   0  20   82.89   30.70
   6   0 -20   40.80   13.40
  -6   0  20   57.79   16.10
   6   0 -20   54.69   48.20
  -5   0  20   -9.60   17.20
  -5   0  20   -4.80    7.60
   5   0 -20   -8.20   25.60
   5   0 -20   -3.80    6.40
   4   0 -20  229.98   21.00
  -4   0  20  187.88   24.80
   4   0 -20  353.86   59.59
  -4   0  20  168.88   35.50
  -4   0  20  222.28   28.10
  -3   0  20   90.49   17.70
   3   0 -20  141.79   39.50
   3   0 -20  110.19   14.40
  -3   0  20  115.49   20.20
  -3   0  20   95.69   27.30
  -2   0  20  379.86   31.20
  -2   0  20  433.96   31.50
   2   0 -20  396.06   61.19
   1   0 -20  580.04   36.30
   1   0 -20  714.13   83.89
  -1   0  20  599.54   40.80
   0   0  20   21.00   11.60
   0   0 -20   25.30   26.60
   0   0 -20   33.40    9.50
  -1   0 -20  685.23   83.09
  -1   0 -20  736.13   42.60
   1   0  20  733.23   47.90
  -2   0 -20  121.69   39.60
  -2   0 -20  106.29   15.60
  -3   0 -20  303.07   57.99
  -3   0 -20  276.47   22.70
  -7  -1  20   37.70   13.30
   7  -1 -20   62.69   45.10
  -7  -1  20   31.40   29.00
   7   1 -20   -2.50   30.70
  -7   1  20   12.10   11.80
  -7   1  20   25.70   17.00
  -7   1  20   13.00   25.00
  -6  -1  20  353.26   30.40
   6  -1 -20  302.57   59.59
  -6  -1  20  284.47   46.90
  -6   1  20  332.27   30.10
  -6   1  20  421.76   52.49
  -6   1  20  338.07   35.10
  -5  -1  20    4.10    9.90
   5  -1 -20    9.50   29.50
   5  -1 -20    3.50    7.80
  -5  -1  20   11.70   22.40
  -5   1  20    0.80   12.30
   5   1 -20    1.90    8.20
  -5   1  20   -1.00    8.80
  -5   1  20   -0.50   19.70
   5   1 -20   40.20   31.20
   4  -1 -20  284.37   23.10
   4  -1 -20  269.27   55.99
  -4  -1  20  208.48   38.70
  -4   1  20  289.17   28.70
   4   1 -20  291.87   24.90
  -4   1  20  205.38   36.50
  -4   1  20  322.37   27.30
   4   1 -20  231.68   50.99
  -3  -1  20  262.47   26.40
   3  -1 -20  291.67   22.30
  -3  -1  20  301.47   26.50
  -3  -1  20  224.08   39.90
   3  -1 -20  300.97   57.19
   3   1 -20  242.58   23.00
  -3   1  20  271.47   26.70
  -3   1  20  275.37   39.20
   3   1 -20  280.77   50.99
  -3   1  20  302.37   26.30
  -2  -1  20    8.40   10.50
  -2  -1  20   14.20    9.20
   2  -1 -20   12.90    6.40
   2  -1 -20    2.30   26.20
  -2   1  20   23.20   11.10
   2   1 -20    5.30    6.90
   2   1 -20   -8.20   21.00
  -2   1  20   20.70   11.20
   1  -1 -20  122.89   15.90
  -1  -1  20  132.89   21.00
   1  -1 -20  126.59   39.80
   1   1 -20   96.29   14.30
   1   1 -20   85.69   34.40
  -1   1  20  118.89   19.70
  -1   1  20  102.39   17.20
   0  -1  20   21.70   10.60
   0  -1 -20   14.50    7.30
   0  -1 -20   18.90   26.80
   0   1 -20   26.90   25.40
   0   1  20   24.30   11.30
   0   1  20   28.10   10.70
   0   1 -20   26.40    8.30
   1  -1  20   -5.20   13.20
  -1  -1 -20    7.50   26.00
  -1  -1 -20    6.10    6.30
   1   1  20   -5.90    8.20
  -1   1 -20    0.10    5.70
  -1   1 -20   -4.70   23.00
  -2  -1 -20   -1.40    5.90
  -2  -1 -20   -1.20   26.40
  -2   1 -20   11.60   25.00
  -2   1 -20   15.70    7.60
  -3  -1 -20  169.18   47.00
  -3  -1 -20   84.59   13.60
  -3   1 -20   94.89   13.40
  -3   1 -20   97.09   37.40
   7  -2 -20   22.90   41.20
  -7  -2  20   11.40   26.70
  -7  -2  20   15.90   10.90
   7   2 -20   38.00   38.30
  -7   2  20    5.20   10.60
  -7   2  20    9.60   16.60
  -7   2  20  -18.70   23.10
  -6  -2  20  165.38   39.30
   6  -2 -20   47.70   41.70
  -6  -2  20   55.89   15.30
  -6   2  20   77.29   20.90
   6   2 -20   84.49   41.30
  -6   2  20  129.79   30.50
  -6   2  20   76.99   18.10
  -5  -2  20   -4.50   21.20
  -5  -2  20   -1.70    9.10
   5  -2 -20   43.00   36.90
   5  -2 -20    4.90    7.20
   5   2 -20    9.00    8.90
  -5   2  20   10.20   10.30
   5   2 -20   -8.90   22.20
  -5   2  20   13.80   13.50
  -5   2  20   -3.20   20.10
   4  -2 -20  178.68   48.50
  -4  -2  20  258.87   24.20
  -4  -2  20  144.59   34.10
  -4   2  20  249.08   36.30
   4   2 -20  156.18   19.70
   4   2 -20  276.87   50.09
  -4   2  20  169.28   21.20
   3  -2 -20  119.49   43.90
   3  -2 -20  103.49   15.50
  -3  -2  20   39.90   25.30
  -3  -2  20   83.79   14.70
  -3   2  20   95.59   19.00
   3   2 -20   95.49   34.30
  -3   2  20   88.39   16.60
   3   2 -20   67.59   14.20
  -3   2  20   78.09   24.20
   2  -2 -20  306.37   22.40
   2  -2 -20  438.76   73.19
  -2  -2  20  292.37   27.90
  -2   2  20  261.67   26.00
  -2   2  20  271.17   26.10
   2   2 -20  327.97   55.29
  -1  -2  20  587.64   39.90
   1  -2 -20  736.13   89.39
   1   2 -20  567.64   35.90
  -1   2  20  522.85   38.70
  -1   2  20  567.34   38.50
   1   2 -20  639.74   74.89
   0  -2 -20    5.20    6.10
   0  -2  20    9.40    8.90
   0  -2 -20    8.80   27.00
   0   2  20   -0.30    7.10
   0   2 -20    0.00    5.10
   0   2  20   13.20   10.00
   0   2 -20   -0.50   20.00
  -1  -2 -20  584.34   80.79
  -1  -2 -20  627.24   39.30
   1  -2  20  670.63   44.70
   1   2  20  659.43   41.80
  -1   2 -20  735.33   69.59
   1   2  20  665.43   44.40
  -1   2 -20  679.03   39.40
  -2  -2 -20   98.89   40.50
  -2   2 -20  110.19   15.00
  -2   2 -20  105.99   35.80
  -3  -2 -20  133.59   18.60
  -3  -2 -20  183.88   50.59
  -3   2 -20  246.98   51.49
  -3   2 -20  212.08   18.60
  -7  -3  20    7.70   28.20
  -7  -3  20   38.20   14.00
   7  -3 -20   29.30   43.40
   7   3 -20   12.60   36.70
  -7   3  20   51.69   21.90
  -7   3  20   78.79   29.70
  -7   3  20   27.50   13.50
  -6  -3  20  163.38   21.50
  -6  -3  20  300.27   49.20
   6  -3 -20  290.77   64.59
   6   3 -20  229.18   44.50
  -6   3  20  294.67   40.50
  -6   3  20  327.57   28.60
  -6   3  20  216.58   32.10
   5  -3 -20   20.80   38.10
  -5  -3  20   -5.50    6.90
  -5  -3  20   -6.30   21.80
   5  -3 -20    3.50    7.00
  -5   3  20   -4.60   18.90
  -5   3  20    2.00    8.90
  -5   3  20   -6.70   11.80
   5   3 -20   -8.70   22.50
   5   3 -20    5.20    8.70
   4  -3 -20  267.27   21.30
  -4  -3  20  199.98   26.10
   4  -3 -20  143.79   48.70
  -4  -3  20  187.68   37.90
  -4   3  20  234.38   34.70
  -4   3  20  266.07   27.90
   4   3 -20  329.87   52.49
  -4   3  20  271.07   25.80
   3  -3 -20  208.48   54.99
  -3  -3  20  180.88   36.40
  -3  -3  20  223.68   26.60
   3  -3 -20  233.38   20.20
  -3   3  20  215.58   33.30
   3   3 -20  225.38   45.20
   3   3 -20  273.07   23.70
  -3   3  20  266.77   25.40
   2  -3 -20  -16.50   27.60
  -2  -3  20   -0.30    7.40
   2  -3 -20   -0.80    5.40
   2   3 -20    1.90   21.00
  -2   3  20    5.10   10.00
   2   3 -20    0.70    7.70
  -2   3  20   -3.60   12.10
  -1  -3  20  127.19   20.30
   1  -3 -20  161.98   47.00
   1  -3 -20  123.09   15.90
  -1   3  20  190.98   24.00
   1   3 -20  160.38   40.90
   1   3 -20  158.58   18.60
  -1   3  20  122.19   20.70
   0  -3 -20   31.10    9.20
   0  -3 -20    9.00   28.60
   0  -3  20   37.40   17.60
   0   3 -20   26.40    8.50
   0   3  20   17.00   11.30
   0   3 -20   45.00   26.40
   0   3  20   10.50    9.80
  -1  -3 -20    0.50   28.00
  -1  -3 -20    6.70    6.40
  -1   3 -20  -11.50   20.00
   1   3  20    1.80    9.00
  -1   3 -20    5.10    6.30
   1   3  20    1.40    9.00
  -2  -3 -20   31.60   11.30
  -2  -3 -20   55.29   36.50
   2   3  20   33.10   12.60
  -2   3 -20   39.40   29.40
  -2   3 -20   28.20    8.20
   6  -4 -20   78.29   47.10
  -6  -4  20   68.69   23.70
  -6  -4  20   84.29   34.50
  -6   4  20   59.69   15.10
   6   4 -20  123.29   36.50
  -6   4  20   71.59   21.40
  -6   4  20   78.99   26.70
   5  -4 -20  -23.20   31.80
  -5  -4  20  -13.70   23.10
  -5  -4  20    3.50    8.60
   5   4 -20   10.70   11.30
   5   4 -20   -6.40   23.40
  -5   4  20   -4.10   11.10
  -5   4  20   -0.10   10.30
  -5   4  20    7.00   20.60
  -4  -4  20  156.88   22.40
   4  -4 -20  218.48   28.00
  -4  -4  20  164.68   38.40
   4  -4 -20  254.17   58.99
  -4   4  20  210.88   27.00
  -4   4  20  290.57   28.70
   4   4 -20  248.38   30.00
   4   4 -20  293.27   47.70
  -4   4  20  252.87   34.50
   3  -4 -20   43.20   10.10
  -3  -4  20   91.09   17.40
   3  -4 -20   83.69   46.30
  -3  -4  20   77.69   28.50
   3   4 -20   58.69   14.40
  -3   4  20   76.59   17.90
  -3   4  20   69.39   16.70
   3   4 -20   72.19   28.90
  -3   4  20  105.79   26.40
  -2  -4  20  207.28   39.30
  -2  -4  20  275.57   26.30
   2  -4 -20  282.17   67.29
   2   4 -20  318.87   50.69
   2   4 -20  244.48   23.50
  -2   4  20  220.68   26.10
  -2   4  20  303.77   28.10
  -1  -4  20  554.34   38.10
   1  -4 -20  476.95   79.39
   1  -4 -20  498.25   33.00
  -1   4  20  460.05   36.00
   1   4 -20  547.75   35.40
   1   4 -20  553.44   67.49
   0  -4 -20   21.00   32.60
   0  -4  20    0.10    8.40
   0   4 -20   11.30   21.20
   0   4 -20    3.60    7.10
   0   4  20    9.60   11.90
   0   4  20    3.90   10.00
  -1  -4 -20  491.25   34.10
  -1  -4 -20  546.15   85.29
   1   4  20  547.15   43.00
  -1   4 -20  542.15   33.50
  -1   4 -20  437.96   61.69
  -2  -4 -20   88.49   44.00
  -2  -4 -20   60.09   12.20
  -2   4 -20   86.29   33.60
  -2   4 -20   73.79   11.90
   5  -5 -20    8.20   40.50
  -5  -5  20    6.70   27.20
  -5   5  20    3.70   10.60
  -5   5  20    5.70   20.00
   5   5 -20   -1.10   21.70
  -5   5  20   12.00   13.80
  -4  -5  20  154.78   37.30
   4  -5 -20  243.88   66.49
  -4   5  20  177.48   27.80
  -4   5  20  209.48   30.40
   4   5 -20  218.88   42.10
   4   5 -20  127.29   20.30
  -3  -5  20   98.29   32.60
   3  -5 -20  110.29   51.39
   3   5 -20   70.49   30.40
  -3   5  20   87.09   24.40
   3   5 -20  154.08   22.80
  -3   5  20  125.39   22.40
  -3   5  20   88.19   15.90
  -2  -5  20   32.10   23.40
   2  -5 -20  -10.10   32.00
   2  -5 -20    7.70   11.10
   2   5 -20   -9.90   19.00
  -2   5  20   10.90   12.10
   2   5 -20   14.70   10.40
  -2   5  20    4.20    8.30
   1  -5 -20   50.29   43.90
  -1   5  20   37.40   13.20
   1   5 -20   42.90   26.10
  -1   5  20   50.49   15.70
   1   5 -20   53.19   12.70
   0  -5 -20  -22.30   30.80
   0   5 -20   17.60    8.80
   0   5  20    5.00    9.60
   0   5  20   10.20   12.10
   0   5 -20    4.10   18.40
  -1  -5 -20  -14.20   32.40
  -1   5 -20   42.40   27.70
   1   5  20   -3.70   10.80
  -1   5 -20   -0.90    6.10
  -4  -6  20  179.88   42.20
   4  -6 -20  125.19   52.99
  -4   6  20  147.29   25.70
   4   6 -20  151.08   33.40
   4   6 -20  105.69   32.80
  -4   6  20  210.08   25.70
   3  -6 -20   36.50   43.80
  -3  -6  20   25.40   25.70
  -3   6  20   67.59   15.00
   3   6 -20   67.19   28.70
  -3   6  20   67.99   18.10
   3   6 -20   47.20   14.70
  -2  -6  20  136.29   37.50
   2  -6 -20  196.78   60.79
   2   6 -20  198.28   25.80
  -2   6  20  205.88   29.10
   2   6 -20  152.58   37.70
  -2   6  20  152.48   20.80
   1  -6 -20  363.56   74.79
   1   6 -20  282.47   49.60
  -1   6  20  477.85   37.60
   1   6 -20  409.86   31.90
  -1   6  20  443.86   33.70
   0  -6 -20  -24.70   31.80
   0   6  20   -2.80   11.60
   0   6 -20    7.00    8.80
   0   6 -20    5.40   20.10
  -6   0  21  237.68   44.80
  -6   0  21  179.68   23.10
   6   0 -21  233.28   53.09
   5   0 -21   40.60   15.40
  -5   0  21   70.59   28.80
  -5   0  21   37.20   11.60
   5   0 -21   48.40   36.80
  -5   0  21  128.99   24.10
   4   0 -21  148.89   20.10
  -4   0  21  185.28   26.30
  -4   0  21  132.89   33.30
   4   0 -21  155.58   42.60
  -4   0  21  155.28   22.40
   3   0 -21  609.04   77.99
   3   0 -21  437.56   32.10
  -3   0  21  456.45   54.59
  -3   0  21  518.05   37.10
  -3   0  21  520.55   37.80
  -2   0  21   13.80   10.90
   2   0 -21   14.70    7.20
  -2   0  21   13.40   10.70
   2   0 -21   32.30   29.50
   1   0 -21  840.82   79.09
  -1   0  21  760.42   56.49
  -1   0  21  721.23   47.10
   1   0 -21  957.80   60.39
   0   0 -21  211.38   18.40
   0   0  21  168.78   23.60
   0   0 -21  206.98   49.80
  -1   0 -21  350.86   25.00
  -1   0 -21  241.28   51.79
  -2   0 -21  347.57   64.89
  -2   0 -21  406.96   37.50
  -6  -1  21  111.29   37.20
   6  -1 -21  124.29   46.50
  -6  -1  21  141.39   21.90
   6   1 -21  139.89   44.60
  -6   1  21  195.28   39.00
  -6   1  21  139.19   26.80
  -6   1  21  103.69   19.50
   5  -1 -21   43.70   34.70
  -5  -1  21   57.69   16.60
  -5  -1  21   65.49   30.20
   5   1 -21   94.79   38.90
  -5   1  21   77.79   19.90
   5   1 -21   83.69   22.70
  -5   1  21   86.99   19.60
   4  -1 -21   42.60   36.80
   4  -1 -21   27.70    9.20
  -4  -1  21    6.10   21.10
  -4  -1  21   25.80   11.40
   4   1 -21   51.09   12.70
  -4   1  21   12.10   24.10
  -4   1  21   19.80   12.00
   4   1 -21   50.79   33.20
  -4   1  21   18.90   15.80
  -3  -1  21  106.99   30.10
   3  -1 -21   99.99   15.10
  -3  -1  21  119.49   20.60
  -3  -1  21  104.89   18.70
   3  -1 -21  114.69   44.30
   3   1 -21  168.18   44.60
  -3   1  21  133.89   34.60
  -3   1  21  168.08   24.80
  -3   1  21  147.59   23.10
   2  -1 -21   31.50   30.40
   2  -1 -21   36.00   10.70
  -2  -1  21   24.70   10.70
   2   1 -21   35.60    9.50
  -2   1  21   31.80   12.20
   2   1 -21    8.20   26.10
  -2   1  21   35.10   13.90
   1  -1 -21    4.40   27.00
  -1  -1  21    0.40    8.20
   1  -1 -21    2.20    6.20
   1   1 -21    1.60    5.90
  -1   1  21   11.20   10.60
  -1   1  21   14.90   10.20
   1   1 -21   -8.90   22.30
   0  -1 -21   12.20    7.40
   0  -1 -21   24.50   30.80
   0  -1  21   19.50   10.40
   0   1 -21   12.60   26.10
   0   1  21   19.10   12.10
   0   1  21   17.60   10.90
   0   1 -21   17.00    8.30
  -1  -1 -21   85.09   38.40
  -1  -1 -21   56.89   11.50
  -1   1 -21  136.69   42.40
  -1   1 -21   87.79   13.10
  -2  -1 -21   15.30    7.90
  -2  -1 -21    7.80   31.90
  -2   1 -21   38.90   10.30
  -2   1 -21   28.90   29.30
  -6  -2  21  202.18   44.10
  -6  -2  21  185.48   24.80
   6  -2 -21  154.88   50.69
   6   2 -21  215.18   46.10
  -6   2  21  151.08   27.20
  -6   2  21  143.19   23.60
  -6   2  21  257.87   42.40
  -5  -2  21   46.40   28.60
  -5  -2  21   26.60   12.30
   5  -2 -21   66.99   42.30
   5   2 -21   66.19   32.80
  -5   2  21   35.90   14.10
  -5   2  21   48.30   17.70
  -5   2  21   32.30   23.10
  -4  -2  21  152.48   23.30
   4  -2 -21  175.38   20.70
  -4  -2  21  131.39   34.60
   4  -2 -21  255.37   59.69
  -4   2  21  132.29   30.80
   4   2 -21  185.88   43.80
   4   2 -21  129.69   20.30
  -4   2  21  211.18   27.60
  -4   2  21  232.18   29.90
   3  -2 -21  335.97   25.40
   3  -2 -21  373.06   65.49
  -3  -2  21  345.07   30.20
  -3  -2  21  233.58   43.00
  -3   2  21  357.96   45.20
   3   2 -21  361.16   55.69
   3   2 -21  359.46   27.90
  -3   2  21  423.36   32.80
  -3   2  21  314.37   29.50
   2  -2 -21   49.99   33.80
   2  -2 -21   10.80    6.70
  -2  -2  21    0.80    9.90
   2   2 -21   -9.50   21.50
  -2   2  21    3.70   10.20
   2   2 -21    8.90    7.80
  -2   2  21    7.30    9.90
   1  -2 -21  634.64   84.99
  -1  -2  21  693.63   44.90
  -1   2  21  658.73   43.10
   1   2 -21  651.93   40.20
  -1   2  21  650.13   44.20
   1   2 -21  517.25   69.79
   0  -2 -21  136.09   44.90
   0   2 -21  189.78   17.50
   0   2 -21   98.49   33.50
   0   2  21  123.49   20.20
   0   2  21  156.08   20.70
  -1  -2 -21  306.17   59.89
  -1  -2 -21  280.47   22.90
  -1   2 -21  296.27   53.09
   1   2  21  282.47   26.00
  -1   2 -21  285.67   26.40
  -2  -2 -21  289.77   61.09
  -2  -2 -21  236.38   21.90
  -2   2 -21  152.98   44.20
  -2   2 -21  275.47   21.70
  -6  -3  21  137.29   42.60
   6  -3 -21  114.49   50.19
  -6   3  21  133.19   32.10
  -6   3  21   98.39   21.20
   6   3 -21  136.29   40.60
  -6   3  21  119.29   26.30
  -5  -3  21   75.09   17.80
  -5  -3  21   94.79   33.00
   5  -3 -21   87.59   44.20
  -5   3  21   87.59   27.60
  -5   3  21   67.49   14.90
   5   3 -21  102.19   35.20
  -5   3  21   85.09   21.10
  -4  -3  21   10.40   23.80
  -4  -3  21    2.00    9.10
   4  -3 -21   27.30   35.30
  -4   3  21   12.50   12.70
   4   3 -21   22.80   28.10
  -4   3  21   21.70   22.10
  -4   3  21   18.70   11.30
  -3  -3  21  107.59   32.00
   3  -3 -21   94.79   14.10
   3  -3 -21   98.49   45.30
  -3  -3  21  118.19   20.50
  -3   3  21   96.79   17.70
   3   3 -21  124.79   36.80
  -3   3  21  114.09   27.50
   3   3 -21   93.39   15.70
  -3   3  21  101.09   19.40
   2  -3 -21   -1.30   30.30
   2  -3 -21   46.20   10.20
  -2  -3  21   31.20   13.50
  -2   3  21   33.70   12.90
   2   3 -21   33.40   26.70
   2   3 -21   55.49   13.20
   1  -3 -21  -22.40   27.80
   1  -3 -21    4.00    6.80
   1   3 -21  -12.30   19.10
   1   3 -21    7.60    8.00
  -1   3  21    5.70   10.20
  -1   3  21   -2.20    9.30
   0  -3 -21   -0.30   29.20
   0  -3 -21    8.70    6.70
   0   3 -21   10.60    8.30
   0   3  21   10.10   11.00
   0   3 -21   20.00   25.20
  -1  -3 -21   32.10   37.80
  -1  -3 -21   28.30    8.90
   1   3  21   50.69   14.00
  -1   3 -21   29.40   27.50
  -1   3 -21   26.40    8.50
  -5  -4  21   45.30   30.50
   5  -4 -21   21.30   42.20
  -5   4  21   34.80   24.10
   5   4 -21   56.19   31.80
  -5   4  21   44.50   17.20
  -5   4  21   35.90   13.30
   4  -4 -21   98.19   45.80
  -4  -4  21  112.39   34.50
  -4   4  21  168.28   32.40
   4   4 -21  103.49   17.90
   4   4 -21  133.09   40.70
  -4   4  21  168.58   25.70
  -4   4  21  202.08   26.70
   3  -4 -21  311.27   65.99
  -3  -4  21  215.88   43.50
  -3   4  21  227.78   26.60
  -3   4  21  339.37   30.60
   3   4 -21  207.78   44.40
   3   4 -21  286.87   26.00
  -3   4  21  240.08   36.10
  -2  -4  21   16.90   23.00
   2  -4 -21   -9.10   30.70
   2   4 -21   10.60    9.40
   2   4 -21   15.40   23.00
  -2   4  21    6.90   11.00
  -2   4  21   15.30   11.70
   1  -4 -21  559.14   86.39
  -1   4  21  501.45   37.70
   1   4 -21  474.75   67.19
   1   4 -21  499.85   34.40
  -1   4  21  461.75   36.50
   0  -4 -21  155.18   51.89
   0   4 -21  190.18   22.00
   0   4 -21  191.08   43.50
   0   4  21  149.69   22.70
  -1  -4 -21  138.29   54.59
   1   4  21  210.38   26.20
  -1   4 -21  136.19   36.80
  -1   4 -21  192.58   18.60
   4  -5 -21  -25.30   37.50
  -4  -5  21   -4.60   24.00
  -4   5  21    3.50   21.20
  -4   5  21    4.20   20.10
  -4   5  21   14.30   14.20
   4   5 -21   16.00   25.40
   3  -5 -21   48.10   48.70
  -3  -5  21   68.69   33.10
  -3   5  21   83.69   18.60
  -3   5  21   66.99   18.90
  -3   5  21   58.89   23.80
   3   5 -21   43.90   13.90
   3   5 -21  100.89   34.00
  -2  -5  21   24.80   26.20
   2  -5 -21   33.40   41.80
  -2   5  21    4.50    9.80
   2   5 -21   11.20    9.00
  -2   5  21   36.50   14.70
   2   5 -21   -2.80   21.10
   1  -5 -21   -4.50   33.60
   1   5 -21   -2.20    7.60
  -1   5  21   -1.20   10.70
   1   5 -21  -10.90   20.30
   0  -5 -21    8.30   34.20
   0   5 -21   -2.60    6.60
   0   5  21   -6.40   10.40
   0   5 -21  -12.20   20.90
  -6   0  22  135.49   38.00
  -6   0  22  117.49   19.20
   6   0 -22  147.19   47.40
   5   0 -22  331.17   60.49
  -5   0  22  213.78   41.40
  -5   0  22  232.18   31.50
  -5   0  22  304.47   28.80
  -4   0  22   11.40   11.00
   4   0 -22  -14.90   27.20
  -4   0  22    1.50   22.90
  -4   0  22   -6.10   12.10
   3   0 -22  579.34   78.99
  -3   0  22  694.63   59.89
   3   0 -22  605.14   39.70
  -3   0  22  680.73   45.30
  -3   0  22  613.04   43.70
   2   0 -22   92.19   14.60
  -2   0  22   91.99   16.20
   2   0 -22   71.29   36.40
  -2   0  22  107.69   19.50
   1   0 -22  318.67   24.60
   1   0 -22  344.87   59.99
   0   0 -22  531.15   34.40
   0   0 -22  557.04   77.19
  -1   0 -22   -1.90   26.30
  -1   0 -22   -0.10    5.60
   6  -1 -22    0.90   38.10
  -6  -1  22   -6.80   25.90
  -6  -1  22    6.80   11.70
  -6   1  22   11.30   16.20
  -6   1  22   23.40   15.40
   6   1 -22  -15.30   31.80
  -6   1  22   16.00   26.50
  -5  -1  22   56.59   16.80
  -5  -1  22    8.70   25.20
   5  -1 -22  100.59   46.40
   5   1 -22   51.69   36.10
  -5   1  22   50.09   15.50
  -5   1  22   28.80   15.70
  -5   1  22   28.50   25.60
   4  -1 -22  -11.60   29.30
  -4  -1  22    4.40   10.20
  -4  -1  22    0.20   23.20
   4   1 -22   -1.60   28.80
  -4   1  22   19.20   14.70
  -4   1  22   -3.70   20.90
  -4   1  22   13.50   11.00
  -3  -1  22    4.70   21.90
  -3  -1  22    4.80   11.70
  -3  -1  22    5.60   11.40
   3  -1 -22  -31.90   28.00
   3  -1 -22    6.70    8.00
  -3   1  22  -12.60   20.50
  -3   1  22    1.60    8.30
   3   1 -22   -5.60   26.90
  -3   1  22    0.10   11.10
   2  -1 -22   13.30   30.20
  -2   1  22   13.30   13.10
   2   1 -22   26.50   29.70
   2   1 -22   10.80    7.10
  -2   1  22    9.00    9.80
   1  -1 -22   70.29   12.70
   1  -1 -22   79.39   37.70
   1   1 -22   56.29   12.20
  -1   1  22   78.59   16.70
   1   1 -22   99.29   37.50
   0  -1 -22   88.29   37.70
   0  -1 -22   64.19   12.80
   0   1  22   46.70   13.60
   0   1 -22   63.99   11.50
   0   1 -22   28.50   29.50
  -1  -1 -22   77.99   13.10
  -1  -1 -22   87.09   37.90
  -1   1 -22   58.39   12.40
  -1   1 -22  103.19   37.60
   5  -2 -22  236.68   58.59
  -5  -2  22  151.48   38.90
  -5   2  22  239.58   31.50
  -5   2  22  289.97   54.19
  -5   2  22  208.58   28.90
   5   2 -22  200.38   46.70
  -4  -2  22  -21.30   22.00
   4  -2 -22   25.00   33.80
   4   2 -22   16.80   30.00
  -4   2  22    1.90    9.30
  -4   2  22   22.40   14.50
   3  -2 -22  530.95   79.79
  -3  -2  22  409.76   55.59
   3   2 -22  517.95   35.60
  -3   2  22  506.75   39.40
  -3   2  22  503.95   38.20
  -3   2  22  570.34   71.69
   3   2 -22  444.56   64.59
   2  -2 -22   42.30   16.00
   2  -2 -22   53.89   37.60
  -2   2  22   57.09   16.60
  -2   2  22   83.49   16.50
   2   2 -22  101.49   36.80
   2   2 -22  110.39   15.70
   1  -2 -22  244.28   21.80
   1  -2 -22  206.78   54.99
   1   2 -22  356.96   59.89
  -1   2  22  320.87   28.00
   1   2 -22  301.07   23.90
   0  -2 -22  534.15   78.99
   0  -2 -22  412.26   30.00
   0   2 -22  483.15   70.49
   0   2  22  447.76   33.90
   0   2 -22  451.15   30.60
  -1  -2 -22  -17.20   28.40
  -1  -2 -22   -1.70    5.90
  -1   2 -22    2.90    6.50
  -1   2 -22   36.10   29.20
   1   2  22    5.80   10.80
   5  -3 -22   21.50   42.80
  -5  -3  22   42.40   32.00
  -5   3  22   51.59   18.90
   5   3 -22   49.60   34.50
  -5   3  22   56.29   16.70
  -5   3  22   45.80   26.40
  -4  -3  22    8.70   27.70
   4  -3 -22   63.59   43.90
   4   3 -22   25.10   27.80
  -4   3  22   17.40   22.40
  -4   3  22   35.40   15.60
  -4   3  22   34.80   15.70
   3  -3 -22  -20.80   32.20
  -3  -3  22   13.20   23.80
  -3   3  22   13.30   22.40
  -3   3  22    1.60   10.80
  -3   3  22   -9.30   10.00
   3   3 -22   11.50   26.40
   3   3 -22    6.10    9.60
   2  -3 -22   21.30   35.50
  -2   3  22   27.00   13.50
   2   3 -22   23.40   28.80
   2   3 -22   27.10   11.50
  -2   3  22   33.90   14.40
   1  -3 -22   75.09   43.60
   1   3 -22   73.09   32.90
  -1   3  22   52.89   21.30
   1   3 -22   54.99   12.90
   0  -3 -22   18.80   35.00
   0   3 -22    8.10    7.30
   0   3 -22    1.90   24.70
   0   3  22   29.10   14.20
   4  -4 -22   24.70   44.30
  -4  -4  22   -6.60   23.60
  -4   4  22    4.50   22.10
   4   4 -22   -3.60   24.10
  -4   4  22    2.80   12.30
  -4   4  22   -3.70   12.50
   3  -4 -22  360.36   74.99
  -3  -4  22  278.27   49.20
   3   4 -22  344.87   34.00
   3   4 -22  338.97   53.59
  -3   4  22  356.86   43.80
  -3   4  22  416.46   33.90
  -3   4  22  413.06   35.10
   2  -4 -22  115.49   48.40
  -2  -4  22   48.60   28.50
   2   4 -22   45.10   29.70
   2   4 -22   92.49   17.50
  -2   4  22   53.79   16.30
   1  -4 -22  141.19   53.09
  -1   4  22  169.38   24.70
   1   4 -22  164.68   40.30
   1   4 -22  171.08   21.50
   4   0 -23   47.20   38.70
  -4   0  23   40.30   31.10
  -4   0  23   47.50   17.50
  -3   0  23  259.57   43.30
   3   0 -23  299.47   57.19
  -3   0  23  249.68   30.90
  -2   0  23  295.77   29.40
   2   0 -23  270.97   57.49
   1   0 -23  -10.60   27.60
   1   0 -23    8.00   10.00
   4  -1 -23  -28.20   30.20
  -4  -1  23    7.20   26.50
  -4   1  23   -1.10   23.30
   4   1 -23    4.50   30.90
  -4   1  23  -11.20   12.10
   3  -1 -23   47.40   36.80
  -3  -1  23   81.49   29.90
  -3   1  23   83.69   30.70
   3   1 -23   60.89   36.10
   2  -1 -23   35.30   34.90
   2   1 -23   47.50   34.10
  -2   1  23   22.40   13.50
   1  -1 -23  110.29   44.30
  -1   1  23   67.99   16.60
   1   1 -23   98.29   39.80
   1   1 -23   79.99   13.90
   4  -2 -23   37.80   42.00
  -4  -2  23   14.90   27.90
  -4   2  23   42.70   16.30
   4   2 -23   57.39   33.80
  -4   2  23   17.60   25.40
  -3  -2  23  170.38   38.80
   3  -2 -23  285.77   62.09
  -3   2  23  233.88   39.20
  -3   2  23  199.38   28.10
   3   2 -23  165.38   43.70
   2  -2 -23  263.07   61.49
   2   2 -23  231.78   50.19
   2   2 -23  164.08   32.90
  -2   2  23  296.77   37.20
   1  -2 -23   -5.10   31.70
  -1   2  23   12.60   11.90
   1   2 -23    1.20   24.10
   1   2 -23    5.40    7.10
   0   0   0    0.00    0.00
_computing_structure_solution     'SHELXT 2018/2 (Sheldrick, 2018)'
;
_shelx_hkl_checksum     70679

# END of CIF
